Program Version,EnergyPlus, Version 8.9.0-40101eaafd, YMD=2018.07.30 14:09,
   ************* Beginning Zone Sizing Calculations
   ** Warning ** ProcessScheduleInput: Schedule:Day:Interval="DATACENTER_BASEMENT_ZN_6 ZN PSZ-AC DATA CENTER OCC SCH DEFAULT", Blank Schedule Type Limits Name input -- will not be validated.
   ** Warning ** ProcessScheduleInput: Schedule:Day:Interval="DATACENTER_BASEMENT_ZN_6 ZN PSZ-AC DATA CENTER OCC SCH FRIDAY", Blank Schedule Type Limits Name input -- will not be validated.
   ** Warning ** ProcessScheduleInput: Schedule:Day:Interval="DATACENTER_BASEMENT_ZN_6 ZN PSZ-AC DATA CENTER OCC SCH MONDAY", Blank Schedule Type Limits Name input -- will not be validated.
   ** Warning ** ProcessScheduleInput: Schedule:Day:Interval="DATACENTER_BASEMENT_ZN_6 ZN PSZ-AC DATA CENTER OCC SCH SATURDAY", Blank Schedule Type Limits Name input -- will not be validated.
   ** Warning ** ProcessScheduleInput: Schedule:Day:Interval="DATACENTER_BASEMENT_ZN_6 ZN PSZ-AC DATA CENTER OCC SCH SUMMER DESIGN DAY", Blank Schedule Type Limits Name input -- will not be validated.
   ** Warning ** ProcessScheduleInput: Schedule:Day:Interval="DATACENTER_BASEMENT_ZN_6 ZN PSZ-AC DATA CENTER OCC SCH SUNDAY", Blank Schedule Type Limits Name input -- will not be validated.
   ** Warning ** ProcessScheduleInput: Schedule:Day:Interval="DATACENTER_BASEMENT_ZN_6 ZN PSZ-AC DATA CENTER OCC SCH THURSDAY", Blank Schedule Type Limits Name input -- will not be validated.
   ** Warning ** ProcessScheduleInput: Schedule:Day:Interval="DATACENTER_BASEMENT_ZN_6 ZN PSZ-AC DATA CENTER OCC SCH TUESDAY", Blank Schedule Type Limits Name input -- will not be validated.
   ** Warning ** ProcessScheduleInput: Schedule:Day:Interval="DATACENTER_BASEMENT_ZN_6 ZN PSZ-AC DATA CENTER OCC SCH WEDNESDAY", Blank Schedule Type Limits Name input -- will not be validated.
   ** Warning ** ProcessScheduleInput: Schedule:Day:Interval="DATACENTER_BASEMENT_ZN_6 ZN PSZ-AC DATA CENTER OCC SCH WINTER DESIGN DAY", Blank Schedule Type Limits Name input -- will not be validated.
   ** Warning ** ProcessScheduleInput: Schedule:Day:Interval="DATACENTER_MID_ZN_6 ZN PSZ-AC DATA CENTER OCC SCH DEFAULT", Blank Schedule Type Limits Name input -- will not be validated.
   ** Warning ** ProcessScheduleInput: Schedule:Day:Interval="DATACENTER_MID_ZN_6 ZN PSZ-AC DATA CENTER OCC SCH FRIDAY", Blank Schedule Type Limits Name input -- will not be validated.
   ** Warning ** ProcessScheduleInput: Schedule:Day:Interval="DATACENTER_MID_ZN_6 ZN PSZ-AC DATA CENTER OCC SCH MONDAY", Blank Schedule Type Limits Name input -- will not be validated.
   ** Warning ** ProcessScheduleInput: Schedule:Day:Interval="DATACENTER_MID_ZN_6 ZN PSZ-AC DATA CENTER OCC SCH SATURDAY", Blank Schedule Type Limits Name input -- will not be validated.
   ** Warning ** ProcessScheduleInput: Schedule:Day:Interval="DATACENTER_MID_ZN_6 ZN PSZ-AC DATA CENTER OCC SCH SUMMER DESIGN DAY", Blank Schedule Type Limits Name input -- will not be validated.
   ** Warning ** ProcessScheduleInput: Schedule:Day:Interval="DATACENTER_MID_ZN_6 ZN PSZ-AC DATA CENTER OCC SCH SUNDAY", Blank Schedule Type Limits Name input -- will not be validated.
   ** Warning ** ProcessScheduleInput: Schedule:Day:Interval="DATACENTER_MID_ZN_6 ZN PSZ-AC DATA CENTER OCC SCH THURSDAY", Blank Schedule Type Limits Name input -- will not be validated.
   ** Warning ** ProcessScheduleInput: Schedule:Day:Interval="DATACENTER_MID_ZN_6 ZN PSZ-AC DATA CENTER OCC SCH TUESDAY", Blank Schedule Type Limits Name input -- will not be validated.
   ** Warning ** ProcessScheduleInput: Schedule:Day:Interval="DATACENTER_MID_ZN_6 ZN PSZ-AC DATA CENTER OCC SCH WEDNESDAY", Blank Schedule Type Limits Name input -- will not be validated.
   ** Warning ** ProcessScheduleInput: Schedule:Day:Interval="DATACENTER_MID_ZN_6 ZN PSZ-AC DATA CENTER OCC SCH WINTER DESIGN DAY", Blank Schedule Type Limits Name input -- will not be validated.
   ** Warning ** ProcessScheduleInput: Schedule:Day:Interval="ECONOMIZER MAX OA FRACTION 70 PCT DEFAULT", Blank Schedule Type Limits Name input -- will not be validated.
   ** Warning ** ProcessScheduleInput: Schedule:Day:Interval="SCHEDULE DAY 1", Blank Schedule Type Limits Name input -- will not be validated.
   ** Warning ** ProcessScheduleInput: Schedule:Day:Interval="SCHEDULE DAY 10", Blank Schedule Type Limits Name input -- will not be validated.
   ** Warning ** ProcessScheduleInput: Schedule:Day:Interval="SCHEDULE DAY 11", Blank Schedule Type Limits Name input -- will not be validated.
   ** Warning ** ProcessScheduleInput: Schedule:Day:Interval="SCHEDULE DAY 12", Blank Schedule Type Limits Name input -- will not be validated.
   ** Warning ** ProcessScheduleInput: Schedule:Day:Interval="SCHEDULE DAY 13", Blank Schedule Type Limits Name input -- will not be validated.
   ** Warning ** ProcessScheduleInput: Schedule:Day:Interval="SCHEDULE DAY 14", Blank Schedule Type Limits Name input -- will not be validated.
   ** Warning ** ProcessScheduleInput: Schedule:Day:Interval="SCHEDULE DAY 15", Blank Schedule Type Limits Name input -- will not be validated.
   ** Warning ** ProcessScheduleInput: Schedule:Day:Interval="SCHEDULE DAY 16", Blank Schedule Type Limits Name input -- will not be validated.
   ** Warning ** ProcessScheduleInput: Schedule:Day:Interval="SCHEDULE DAY 17", Blank Schedule Type Limits Name input -- will not be validated.
   ** Warning ** ProcessScheduleInput: Schedule:Day:Interval="SCHEDULE DAY 18", Blank Schedule Type Limits Name input -- will not be validated.
   ** Warning ** ProcessScheduleInput: Schedule:Day:Interval="SCHEDULE DAY 19", Blank Schedule Type Limits Name input -- will not be validated.
   ** Warning ** ProcessScheduleInput: Schedule:Day:Interval="SCHEDULE DAY 2", Blank Schedule Type Limits Name input -- will not be validated.
   ** Warning ** ProcessScheduleInput: Schedule:Day:Interval="SCHEDULE DAY 20", Blank Schedule Type Limits Name input -- will not be validated.
   ** Warning ** ProcessScheduleInput: Schedule:Day:Interval="SCHEDULE DAY 21", Blank Schedule Type Limits Name input -- will not be validated.
   ** Warning ** ProcessScheduleInput: Schedule:Day:Interval="SCHEDULE DAY 22", Blank Schedule Type Limits Name input -- will not be validated.
   ** Warning ** ProcessScheduleInput: Schedule:Day:Interval="SCHEDULE DAY 23", Blank Schedule Type Limits Name input -- will not be validated.
   ** Warning ** ProcessScheduleInput: Schedule:Day:Interval="SCHEDULE DAY 24", Blank Schedule Type Limits Name input -- will not be validated.
   ** Warning ** ProcessScheduleInput: Schedule:Day:Interval="SCHEDULE DAY 25", Blank Schedule Type Limits Name input -- will not be validated.
   ** Warning ** ProcessScheduleInput: Schedule:Day:Interval="SCHEDULE DAY 26", Blank Schedule Type Limits Name input -- will not be validated.
   ** Warning ** ProcessScheduleInput: Schedule:Day:Interval="SCHEDULE DAY 29", Blank Schedule Type Limits Name input -- will not be validated.
   ** Warning ** ProcessScheduleInput: Schedule:Day:Interval="SCHEDULE DAY 3", Blank Schedule Type Limits Name input -- will not be validated.
   ** Warning ** ProcessScheduleInput: Schedule:Day:Interval="SCHEDULE DAY 30", Blank Schedule Type Limits Name input -- will not be validated.
   ** Warning ** ProcessScheduleInput: Schedule:Day:Interval="SCHEDULE DAY 31", Blank Schedule Type Limits Name input -- will not be validated.
   ** Warning ** ProcessScheduleInput: Schedule:Day:Interval="SCHEDULE DAY 32", Blank Schedule Type Limits Name input -- will not be validated.
   ** Warning ** ProcessScheduleInput: Schedule:Day:Interval="SCHEDULE DAY 33", Blank Schedule Type Limits Name input -- will not be validated.
   ** Warning ** ProcessScheduleInput: Schedule:Day:Interval="SCHEDULE DAY 34", Blank Schedule Type Limits Name input -- will not be validated.
   ** Warning ** ProcessScheduleInput: Schedule:Day:Interval="SCHEDULE DAY 35", Blank Schedule Type Limits Name input -- will not be validated.
   ** Warning ** ProcessScheduleInput: Schedule:Day:Interval="SCHEDULE DAY 36", Blank Schedule Type Limits Name input -- will not be validated.
   ** Warning ** ProcessScheduleInput: Schedule:Day:Interval="SCHEDULE DAY 37", Blank Schedule Type Limits Name input -- will not be validated.
   ** Warning ** ProcessScheduleInput: Schedule:Day:Interval="SCHEDULE DAY 38", Blank Schedule Type Limits Name input -- will not be validated.
   ** Warning ** ProcessScheduleInput: Schedule:Day:Interval="SCHEDULE DAY 39", Blank Schedule Type Limits Name input -- will not be validated.
   ** Warning ** ProcessScheduleInput: Schedule:Day:Interval="SCHEDULE DAY 4", Blank Schedule Type Limits Name input -- will not be validated.
   ** Warning ** ProcessScheduleInput: Schedule:Day:Interval="SCHEDULE DAY 40", Blank Schedule Type Limits Name input -- will not be validated.
   ** Warning ** ProcessScheduleInput: Schedule:Day:Interval="SCHEDULE DAY 41", Blank Schedule Type Limits Name input -- will not be validated.
   ** Warning ** ProcessScheduleInput: Schedule:Day:Interval="SCHEDULE DAY 42", Blank Schedule Type Limits Name input -- will not be validated.
   ** Warning ** ProcessScheduleInput: Schedule:Day:Interval="SCHEDULE DAY 43", Blank Schedule Type Limits Name input -- will not be validated.
   ** Warning ** ProcessScheduleInput: Schedule:Day:Interval="SCHEDULE DAY 44", Blank Schedule Type Limits Name input -- will not be validated.
   ** Warning ** ProcessScheduleInput: Schedule:Day:Interval="SCHEDULE DAY 45", Blank Schedule Type Limits Name input -- will not be validated.
   ** Warning ** ProcessScheduleInput: Schedule:Day:Interval="SCHEDULE DAY 46", Blank Schedule Type Limits Name input -- will not be validated.
   ** Warning ** ProcessScheduleInput: Schedule:Day:Interval="SCHEDULE DAY 47", Blank Schedule Type Limits Name input -- will not be validated.
   ** Warning ** ProcessScheduleInput: Schedule:Day:Interval="SCHEDULE DAY 48", Blank Schedule Type Limits Name input -- will not be validated.
   ** Warning ** ProcessScheduleInput: Schedule:Day:Interval="SCHEDULE DAY 49", Blank Schedule Type Limits Name input -- will not be validated.
   ** Warning ** ProcessScheduleInput: Schedule:Day:Interval="SCHEDULE DAY 5", Blank Schedule Type Limits Name input -- will not be validated.
   ** Warning ** ProcessScheduleInput: Schedule:Day:Interval="SCHEDULE DAY 50", Blank Schedule Type Limits Name input -- will not be validated.
   ** Warning ** ProcessScheduleInput: Schedule:Day:Interval="SCHEDULE DAY 51", Blank Schedule Type Limits Name input -- will not be validated.
   ** Warning ** ProcessScheduleInput: Schedule:Day:Interval="SCHEDULE DAY 6", Blank Schedule Type Limits Name input -- will not be validated.
   ** Warning ** ProcessScheduleInput: Schedule:Day:Interval="SCHEDULE DAY 7", Blank Schedule Type Limits Name input -- will not be validated.
   ** Warning ** ProcessScheduleInput: Schedule:Day:Interval="SCHEDULE DAY 8", Blank Schedule Type Limits Name input -- will not be validated.
   ** Warning ** ProcessScheduleInput: Schedule:Day:Interval="SCHEDULE DAY 9", Blank Schedule Type Limits Name input -- will not be validated.
   ** Warning ** ProcessScheduleInput: Schedule:Year="DATACENTER_BASEMENT_ZN_6 ZN PSZ-AC DATA CENTER OCC SCH", Blank Schedule Type Limits Name input -- will not be validated.
   ** Warning ** ProcessScheduleInput: Schedule:Year="DATACENTER_MID_ZN_6 ZN PSZ-AC DATA CENTER OCC SCH", Blank Schedule Type Limits Name input -- will not be validated.
   ** Warning ** ProcessScheduleInput: Schedule:Year="ECONOMIZER MAX OA FRACTION 70 PCT", Blank Schedule Type Limits Name input -- will not be validated.
   ** Warning ** ProcessScheduleInput: Schedule:Year="FRACTION LATENT - 0.05", Blank Schedule Type Limits Name input -- will not be validated.
   ** Warning ** ProcessScheduleInput: Schedule:Year="FRACTION LATENT - 0.05 1", Blank Schedule Type Limits Name input -- will not be validated.
   ** Warning ** ProcessScheduleInput: Schedule:Year="FRACTION LATENT - 0.05 2", Blank Schedule Type Limits Name input -- will not be validated.
   ** Warning ** ProcessScheduleInput: Schedule:Year="FRACTION SENSIBLE - 0.2", Blank Schedule Type Limits Name input -- will not be validated.
   ** Warning ** ProcessScheduleInput: Schedule:Year="FRACTION SENSIBLE - 0.2 1", Blank Schedule Type Limits Name input -- will not be validated.
   ** Warning ** ProcessScheduleInput: Schedule:Year="FRACTION SENSIBLE - 0.2 2", Blank Schedule Type Limits Name input -- will not be validated.
   ** Warning ** ProcessScheduleInput: Schedule:Year="MIXED WATER AT FAUCET TEMP - 140F", Blank Schedule Type Limits Name input -- will not be validated.
   ** Warning ** ProcessScheduleInput: Schedule:Year="MIXED WATER AT FAUCET TEMP - 140F 1", Blank Schedule Type Limits Name input -- will not be validated.
   ** Warning ** ProcessScheduleInput: Schedule:Year="MIXED WATER AT FAUCET TEMP - 140F 2", Blank Schedule Type Limits Name input -- will not be validated.
   ** Warning ** ProcessScheduleInput: Schedule:Constant="ALWAYS OFF DISCRETE", Blank Schedule Type Limits Name input -- will not be validated.
   ** Warning ** ProcessScheduleInput: Schedule:Constant="ALWAYS ON CONTINUOUS", Blank Schedule Type Limits Name input -- will not be validated.
   ** Warning ** ProcessScheduleInput: ExternalInterface:Schedule="USER_DEFINED_GENERATOR_DEMAND", Schedule Type Limits Name="FUEL CELL WATT LIMITS" not found -- will not be validated
   ** Warning ** CheckUsedConstructions: There are 10 nominally unused constructions in input.
   **   ~~~   ** For explicit details on each unused construction, use Output:Diagnostics,DisplayExtraWarnings;
   ** Warning ** GetDaylightingControls: Fraction of Zone controlled by the Daylighting reference points is < 1.0.
   **   ~~~   ** ..discovered in "Daylighting:Controls" for Zone="PERIMETER_BOT_ZN_1 ZN", only 0.56 of the zone is controlled.
   ** Warning ** GetDaylightingControls: Fraction of Zone controlled by the Daylighting reference points is < 1.0.
   **   ~~~   ** ..discovered in "Daylighting:Controls" for Zone="PERIMETER_BOT_ZN_2 ZN", only 0.57 of the zone is controlled.
   ** Warning ** GetDaylightingControls: Fraction of Zone controlled by the Daylighting reference points is < 1.0.
   **   ~~~   ** ..discovered in "Daylighting:Controls" for Zone="PERIMETER_BOT_ZN_3 ZN", only 0.56 of the zone is controlled.
   ** Warning ** GetDaylightingControls: Fraction of Zone controlled by the Daylighting reference points is < 1.0.
   **   ~~~   ** ..discovered in "Daylighting:Controls" for Zone="PERIMETER_BOT_ZN_4 ZN", only 0.57 of the zone is controlled.
   ** Warning ** GetDaylightingControls: Fraction of Zone controlled by the Daylighting reference points is < 1.0.
   **   ~~~   ** ..discovered in "Daylighting:Controls" for Zone="PERIMETER_MID_ZN_1 ZN", only 0.56 of the zone is controlled.
   ** Warning ** GetDaylightingControls: Fraction of Zone controlled by the Daylighting reference points is < 1.0.
   **   ~~~   ** ..discovered in "Daylighting:Controls" for Zone="PERIMETER_MID_ZN_2 ZN", only 0.57 of the zone is controlled.
   ** Warning ** GetDaylightingControls: Fraction of Zone controlled by the Daylighting reference points is < 1.0.
   **   ~~~   ** ..discovered in "Daylighting:Controls" for Zone="PERIMETER_MID_ZN_3 ZN", only 0.56 of the zone is controlled.
   ** Warning ** GetDaylightingControls: Fraction of Zone controlled by the Daylighting reference points is < 1.0.
   **   ~~~   ** ..discovered in "Daylighting:Controls" for Zone="PERIMETER_MID_ZN_4 ZN", only 0.57 of the zone is controlled.
   ** Warning ** GetDaylightingControls: Fraction of Zone controlled by the Daylighting reference points is < 1.0.
   **   ~~~   ** ..discovered in "Daylighting:Controls" for Zone="PERIMETER_TOP_ZN_1 ZN", only 0.56 of the zone is controlled.
   ** Warning ** GetDaylightingControls: Fraction of Zone controlled by the Daylighting reference points is < 1.0.
   **   ~~~   ** ..discovered in "Daylighting:Controls" for Zone="PERIMETER_TOP_ZN_2 ZN", only 0.57 of the zone is controlled.
   ** Warning ** GetDaylightingControls: Fraction of Zone controlled by the Daylighting reference points is < 1.0.
   **   ~~~   ** ..discovered in "Daylighting:Controls" for Zone="PERIMETER_TOP_ZN_3 ZN", only 0.56 of the zone is controlled.
   ** Warning ** GetDaylightingControls: Fraction of Zone controlled by the Daylighting reference points is < 1.0.
   **   ~~~   ** ..discovered in "Daylighting:Controls" for Zone="PERIMETER_TOP_ZN_4 ZN", only 0.57 of the zone is controlled.
   ** Warning ** Calculated design heating load for zone=BASEMENT ZN is zero.
   **   ~~~   ** Check Sizing:Zone and ZoneControl:Thermostat inputs.
   ** Warning ** Calculated design heating load for zone=CORE_BOTTOM ZN is zero.
   **   ~~~   ** Check Sizing:Zone and ZoneControl:Thermostat inputs.
   ** Warning ** Calculated design heating load for zone=DATACENTER_BASEMENT_ZN_6 ZN is zero.
   **   ~~~   ** Check Sizing:Zone and ZoneControl:Thermostat inputs.
   ** Warning ** Calculated design heating load for zone=DATACENTER_BOT_ZN_6 ZN is zero.
   **   ~~~   ** Check Sizing:Zone and ZoneControl:Thermostat inputs.
   ** Warning ** Calculated design heating load for zone=DATACENTER_MID_ZN_6 ZN is zero.
   **   ~~~   ** Check Sizing:Zone and ZoneControl:Thermostat inputs.
   ** Warning ** Calculated design heating load for zone=DATACENTER_TOP_ZN_6 ZN is zero.
   **   ~~~   ** Check Sizing:Zone and ZoneControl:Thermostat inputs.
   ** Warning ** Calculated design heating load for zone=PERIMETER_BOT_ZN_4 ZN is zero.
   **   ~~~   ** Check Sizing:Zone and ZoneControl:Thermostat inputs.
   ************* Beginning System Sizing Calculations
   ** Warning ** Since Zone Minimum Air Flow Input Method = CONSTANT, input for Fixed Minimum Air Flow Rate will be ignored.
   **   ~~~   ** Occurs in AirTerminal:SingleDuct:VAV:Reheat = BASEMENT ZN VAV TERM
   ** Warning ** Since Damper Heating Action = REVERSE, input for Maximum Flow Fraction During Reheat will be ignored.
   **   ~~~   ** Occurs in AirTerminal:SingleDuct:VAV:Reheat = BASEMENT ZN VAV TERM
   ** Warning ** Since Zone Minimum Air Flow Input Method = CONSTANT, input for Fixed Minimum Air Flow Rate will be ignored.
   **   ~~~   ** Occurs in AirTerminal:SingleDuct:VAV:Reheat = CORE_BOTTOM ZN VAV TERM
   ** Warning ** Since Damper Heating Action = REVERSE, input for Maximum Flow Fraction During Reheat will be ignored.
   **   ~~~   ** Occurs in AirTerminal:SingleDuct:VAV:Reheat = CORE_BOTTOM ZN VAV TERM
   ** Warning ** Since Zone Minimum Air Flow Input Method = CONSTANT, input for Fixed Minimum Air Flow Rate will be ignored.
   **   ~~~   ** Occurs in AirTerminal:SingleDuct:VAV:Reheat = CORE_MID ZN VAV TERM
   ** Warning ** Since Damper Heating Action = REVERSE, input for Maximum Flow Fraction During Reheat will be ignored.
   **   ~~~   ** Occurs in AirTerminal:SingleDuct:VAV:Reheat = CORE_MID ZN VAV TERM
   ** Warning ** Since Zone Minimum Air Flow Input Method = CONSTANT, input for Fixed Minimum Air Flow Rate will be ignored.
   **   ~~~   ** Occurs in AirTerminal:SingleDuct:VAV:Reheat = CORE_TOP ZN VAV TERM
   ** Warning ** Since Damper Heating Action = REVERSE, input for Maximum Flow Fraction During Reheat will be ignored.
   **   ~~~   ** Occurs in AirTerminal:SingleDuct:VAV:Reheat = CORE_TOP ZN VAV TERM
   ** Warning ** Since Zone Minimum Air Flow Input Method = CONSTANT, input for Fixed Minimum Air Flow Rate will be ignored.
   **   ~~~   ** Occurs in AirTerminal:SingleDuct:VAV:Reheat = PERIMETER_BOT_ZN_1 ZN VAV TERM
   ** Warning ** Since Damper Heating Action = REVERSE, input for Maximum Flow Fraction During Reheat will be ignored.
   **   ~~~   ** Occurs in AirTerminal:SingleDuct:VAV:Reheat = PERIMETER_BOT_ZN_1 ZN VAV TERM
   ** Warning ** Since Zone Minimum Air Flow Input Method = CONSTANT, input for Fixed Minimum Air Flow Rate will be ignored.
   **   ~~~   ** Occurs in AirTerminal:SingleDuct:VAV:Reheat = PERIMETER_BOT_ZN_2 ZN VAV TERM
   ** Warning ** Since Damper Heating Action = REVERSE, input for Maximum Flow Fraction During Reheat will be ignored.
   **   ~~~   ** Occurs in AirTerminal:SingleDuct:VAV:Reheat = PERIMETER_BOT_ZN_2 ZN VAV TERM
   ** Warning ** Since Zone Minimum Air Flow Input Method = CONSTANT, input for Fixed Minimum Air Flow Rate will be ignored.
   **   ~~~   ** Occurs in AirTerminal:SingleDuct:VAV:Reheat = PERIMETER_BOT_ZN_3 ZN VAV TERM
   ** Warning ** Since Damper Heating Action = REVERSE, input for Maximum Flow Fraction During Reheat will be ignored.
   **   ~~~   ** Occurs in AirTerminal:SingleDuct:VAV:Reheat = PERIMETER_BOT_ZN_3 ZN VAV TERM
   ** Warning ** Since Zone Minimum Air Flow Input Method = CONSTANT, input for Fixed Minimum Air Flow Rate will be ignored.
   **   ~~~   ** Occurs in AirTerminal:SingleDuct:VAV:Reheat = PERIMETER_BOT_ZN_4 ZN VAV TERM
   ** Warning ** Since Damper Heating Action = REVERSE, input for Maximum Flow Fraction During Reheat will be ignored.
   **   ~~~   ** Occurs in AirTerminal:SingleDuct:VAV:Reheat = PERIMETER_BOT_ZN_4 ZN VAV TERM
   ** Warning ** Since Zone Minimum Air Flow Input Method = CONSTANT, input for Fixed Minimum Air Flow Rate will be ignored.
   **   ~~~   ** Occurs in AirTerminal:SingleDuct:VAV:Reheat = PERIMETER_MID_ZN_1 ZN VAV TERM
   ** Warning ** Since Damper Heating Action = REVERSE, input for Maximum Flow Fraction During Reheat will be ignored.
   **   ~~~   ** Occurs in AirTerminal:SingleDuct:VAV:Reheat = PERIMETER_MID_ZN_1 ZN VAV TERM
   ** Warning ** Since Zone Minimum Air Flow Input Method = CONSTANT, input for Fixed Minimum Air Flow Rate will be ignored.
   **   ~~~   ** Occurs in AirTerminal:SingleDuct:VAV:Reheat = PERIMETER_MID_ZN_2 ZN VAV TERM
   ** Warning ** Since Damper Heating Action = REVERSE, input for Maximum Flow Fraction During Reheat will be ignored.
   **   ~~~   ** Occurs in AirTerminal:SingleDuct:VAV:Reheat = PERIMETER_MID_ZN_2 ZN VAV TERM
   ** Warning ** Since Zone Minimum Air Flow Input Method = CONSTANT, input for Fixed Minimum Air Flow Rate will be ignored.
   **   ~~~   ** Occurs in AirTerminal:SingleDuct:VAV:Reheat = PERIMETER_MID_ZN_3 ZN VAV TERM
   ** Warning ** Since Damper Heating Action = REVERSE, input for Maximum Flow Fraction During Reheat will be ignored.
   **   ~~~   ** Occurs in AirTerminal:SingleDuct:VAV:Reheat = PERIMETER_MID_ZN_3 ZN VAV TERM
   ** Warning ** Since Zone Minimum Air Flow Input Method = CONSTANT, input for Fixed Minimum Air Flow Rate will be ignored.
   **   ~~~   ** Occurs in AirTerminal:SingleDuct:VAV:Reheat = PERIMETER_MID_ZN_4 ZN VAV TERM
   ** Warning ** Since Damper Heating Action = REVERSE, input for Maximum Flow Fraction During Reheat will be ignored.
   **   ~~~   ** Occurs in AirTerminal:SingleDuct:VAV:Reheat = PERIMETER_MID_ZN_4 ZN VAV TERM
   ** Warning ** Since Zone Minimum Air Flow Input Method = CONSTANT, input for Fixed Minimum Air Flow Rate will be ignored.
   **   ~~~   ** Occurs in AirTerminal:SingleDuct:VAV:Reheat = PERIMETER_TOP_ZN_1 ZN VAV TERM
   ** Warning ** Since Damper Heating Action = REVERSE, input for Maximum Flow Fraction During Reheat will be ignored.
   **   ~~~   ** Occurs in AirTerminal:SingleDuct:VAV:Reheat = PERIMETER_TOP_ZN_1 ZN VAV TERM
   ** Warning ** Since Zone Minimum Air Flow Input Method = CONSTANT, input for Fixed Minimum Air Flow Rate will be ignored.
   **   ~~~   ** Occurs in AirTerminal:SingleDuct:VAV:Reheat = PERIMETER_TOP_ZN_2 ZN VAV TERM
   ** Warning ** Since Damper Heating Action = REVERSE, input for Maximum Flow Fraction During Reheat will be ignored.
   **   ~~~   ** Occurs in AirTerminal:SingleDuct:VAV:Reheat = PERIMETER_TOP_ZN_2 ZN VAV TERM
   ** Warning ** Since Zone Minimum Air Flow Input Method = CONSTANT, input for Fixed Minimum Air Flow Rate will be ignored.
   **   ~~~   ** Occurs in AirTerminal:SingleDuct:VAV:Reheat = PERIMETER_TOP_ZN_3 ZN VAV TERM
   ** Warning ** Since Damper Heating Action = REVERSE, input for Maximum Flow Fraction During Reheat will be ignored.
   **   ~~~   ** Occurs in AirTerminal:SingleDuct:VAV:Reheat = PERIMETER_TOP_ZN_3 ZN VAV TERM
   ** Warning ** Since Zone Minimum Air Flow Input Method = CONSTANT, input for Fixed Minimum Air Flow Rate will be ignored.
   **   ~~~   ** Occurs in AirTerminal:SingleDuct:VAV:Reheat = PERIMETER_TOP_ZN_4 ZN VAV TERM
   ** Warning ** Since Damper Heating Action = REVERSE, input for Maximum Flow Fraction During Reheat will be ignored.
   **   ~~~   ** Occurs in AirTerminal:SingleDuct:VAV:Reheat = PERIMETER_TOP_ZN_4 ZN VAV TERM
   ** Warning ** ManageSizing: Calculated Heating Design Air Flow Rate for System=DATACENTER_BASEMENT_ZN_6 ZN PSZ-AC DATA CENTER is zero.
   **   ~~~   ** Check Sizing:Zone and ZoneControl:Thermostat inputs.
   ** Warning ** ManageSizing: Calculated Heating Design Air Flow Rate for System=DATACENTER_BOT_ZN_6 ZN PSZ-AC DATA CENTER is zero.
   **   ~~~   ** Check Sizing:Zone and ZoneControl:Thermostat inputs.
   ** Warning ** ManageSizing: Calculated Heating Design Air Flow Rate for System=DATACENTER_MID_ZN_6 ZN PSZ-AC DATA CENTER is zero.
   **   ~~~   ** Check Sizing:Zone and ZoneControl:Thermostat inputs.
   ** Warning ** ManageSizing: Calculated Heating Design Air Flow Rate for System=DATACENTER_TOP_ZN_6 ZN PSZ-AC DATA CENTER is zero.
   **   ~~~   ** Check Sizing:Zone and ZoneControl:Thermostat inputs.
   ************* Beginning Plant Sizing Calculations
   ** Warning ** Missing temperature setpoint for LeavingSetpointModulated mode Boiler named HOT WATER LOOP BOILER 8806KBTU/HR 0.8 THERMAL EFF
   **   ~~~   **   A temperature setpoint is needed at the outlet node of a boiler in variable flow mode
   **   ~~~   **   use a Setpoint Manager to establish a setpoint at the boiler outlet node 
   **   ~~~   **   or use an EMS actuator to establish a setpoint at the boiler outlet node 
   **   ~~~   **   The overall loop setpoint will be assumed for Boiler. The simulation continues ... 
   ** Warning ** Output:Meter: invalid Key Name="DISTRICTCOOLING:FACILITY" - not found.
   ** Warning ** Output:Meter: invalid Key Name="DISTRICTHEATING:FACILITY" - not found.
   ** Warning ** Output:Meter:MeterFileOnly requested for "Electricity:Facility" (TimeStep), already on "Output:Meter". Will report to both eplusout.eso and eplusout.mtr
   ************* Testing Individual Branch Integrity
   ************* All Branches passed integrity testing
   ************* Testing Individual Supply Air Path Integrity
   ************* All Supply Air Paths passed integrity testing
   ************* Testing Individual Return Air Path Integrity
   ************* All Return Air Paths passed integrity testing
   ************* No node connection errors were found.
   ************* Beginning Simulation
   ** Warning ** Processing Monthly Tabular Reports: Variable names not valid for this simulation
   **   ~~~   ** ...use Output:Diagnostics,DisplayExtraWarnings; to show more details on individual variables.
   ** Warning ** SimHVAC: Maximum iterations (20) exceeded for all HVAC loops, at RUN PERIOD 1, 01/03 16:00 - 16:05
   **   ~~~   ** The solution for one or more of the Air Loop HVAC systems did not appear to converge
   **   ~~~   ** ...use Output:Diagnostics,DisplayExtraWarnings; to show more details on each max iteration exceeded.
   ** Warning ** Plant Loop: HEAT PUMP LOOP Demand Side is storing excess heat the majority of the time.
   ** Warning ** Plant Loop: HEAT PUMP LOOP Supply Side is storing excess heat the majority of the time.
   ** Warning ** The resource referenced by LifeCycleCost:UsePriceEscalation= "U.S. AVG  COMMERCIAL-ELECTRICITY" has no energy cost. 
   **   ~~~   ** ... It is likely that the wrong resource is used. The resource should match the meter used in Utility:Tariff.
   ** Warning ** The resource referenced by LifeCycleCost:UsePriceEscalation= "U.S. AVG  COMMERCIAL-DISTILLATE OIL" has no energy cost. 
   **   ~~~   ** ... It is likely that the wrong resource is used. The resource should match the meter used in Utility:Tariff.
   ** Warning ** The resource referenced by LifeCycleCost:UsePriceEscalation= "U.S. AVG  COMMERCIAL-RESIDUAL OIL" has no energy cost. 
   **   ~~~   ** ... It is likely that the wrong resource is used. The resource should match the meter used in Utility:Tariff.
   ** Warning ** The resource referenced by LifeCycleCost:UsePriceEscalation= "U.S. AVG  COMMERCIAL-NATURAL GAS" has no energy cost. 
   **   ~~~   ** ... It is likely that the wrong resource is used. The resource should match the meter used in Utility:Tariff.
   ** Warning ** The resource referenced by LifeCycleCost:UsePriceEscalation= "U.S. AVG  COMMERCIAL-COAL" has no energy cost. 
   **   ~~~   ** ... It is likely that the wrong resource is used. The resource should match the meter used in Utility:Tariff.
   ************* Simulation Error Summary *************
   ** Warning ** The following Report Variables were requested but not generated -- check.rdd file
   **   ~~~   ** Either the IDF did not contain these elements, the variable name is misspelled,
   **   ~~~   ** or the requested variable is an advanced output which requires Output : Diagnostics, DisplayAdvancedReportVariables;
   ************* Key=CAV_bas_CoolC-CAV_HeatCNode, VarName=SYSTEM NODE TEMPERATURE, Frequency=TimeStep
   ************* Key=VAV_bot WITH REHEAT_CoolC-VAV WITH REHEAT_HeatCNode, VarName=SYSTEM NODE TEMPERATURE, Frequency=TimeStep
   ************* Key=VAV_mid WITH REHEAT_CoolC-VAV WITH REHEAT_HeatCNode, VarName=SYSTEM NODE TEMPERATURE, Frequency=TimeStep
   ************* Key=VAV_top WITH REHEAT_CoolC-VAV WITH REHEAT_HeatCNode, VarName=SYSTEM NODE TEMPERATURE, Frequency=TimeStep
   ************* Key=CAV_bas_HeatCDemand Outlet Node, VarName=SYSTEM NODE MASS FLOW RATE, Frequency=TimeStep
   ************* Key=VAV_top WITH REHEAT_HeatCDemand Outlet Node, VarName=SYSTEM NODE MASS FLOW RATE, Frequency=TimeStep
   ************* Key=VAV_bot WITH REHEAT_HeatCDemand Outlet Node, VarName=SYSTEM NODE MASS FLOW RATE, Frequency=TimeStep
   ************* Key=VAV_mid WITH REHEAT_HeatCDemand Outlet Node, VarName=SYSTEM NODE MASS FLOW RATE, Frequency=TimeStep
   ************* Key=VAV_top WITH REHEAT_HeatCDemand Inlet Node, VarName=SYSTEM NODE MASS FLOW RATE, Frequency=TimeStep
   ************* Key=VAV_bot WITH REHEAT_HeatCDemand Inlet Node, VarName=SYSTEM NODE MASS FLOW RATE, Frequency=TimeStep
   ************* Key=VAV_mid WITH REHEAT_HeatCDemand Inlet Node, VarName=SYSTEM NODE MASS FLOW RATE, Frequency=TimeStep
   ************* Key=VAV_top WITH REHEAT_HeatCDemand Outlet Node, VarName=SYSTEM NODE TEMPERATURE, Frequency=TimeStep
   ************* Key=VAV_bot WITH REHEAT_HeatCDemand Outlet Node, VarName=SYSTEM NODE TEMPERATURE, Frequency=TimeStep
   ************* Key=VAV_mid WITH REHEAT_HeatCDemand Outlet Node, VarName=SYSTEM NODE TEMPERATURE, Frequency=TimeStep
   ************* Key=VAV_top WITH REHEAT_HeatCDemand Inlet Node, VarName=SYSTEM NODE TEMPERATURE, Frequency=TimeStep
   ************* Key=VAV_bot WITH REHEAT_HeatCDemand Inlet Node, VarName=SYSTEM NODE TEMPERATURE, Frequency=TimeStep
   ************* Key=VAV_mid WITH REHEAT_HeatCDemand Inlet Node, VarName=SYSTEM NODE TEMPERATURE, Frequency=TimeStep
   ************* Key=AirLoop DataCenter Basement Water to Air Heat Pump Source Side1 Inlet Node, VarName=SYSTEM NODE MASS FLOW RATE, Frequency=TimeStep
   ************* Key=AirLoop DataCenter Basement Water to Air Heat Pump Source Side1 Inlet Node, VarName=SYSTEM NODE TEMPERATURE, Frequency=TimeStep
   ************* Key=AirLoop DataCenter Basement Water to Air Heat Pump Source Side1 Outlet Node, VarName=SYSTEM NODE MASS FLOW RATE, Frequency=TimeStep
   ************* Key=AirLoop DataCenter Basement Water to Air Heat Pump Source Side1 Outlet Node, VarName=SYSTEM NODE TEMPERATURE, Frequency=TimeStep
   ************* Key=AirLoop DataCenter Basement Supply Fan Outlet, VarName=SYSTEM NODE MASS FLOW RATE, Frequency=TimeStep
   ************* Key=AirLoop DataCenter Basement Supply Fan Outlet, VarName=SYSTEM NODE TEMPERATURE, Frequency=TimeStep
   ************* Key=Cooling Coil Air Outlet Node AirLoop DataCenter Basement, VarName=SYSTEM NODE MASS FLOW RATE, Frequency=TimeStep
   ************* Key=Cooling Coil Air Outlet Node AirLoop DataCenter Basement, VarName=SYSTEM NODE TEMPERATURE, Frequency=TimeStep
   ************* Key=DataCenter_ExtraWaterHeatCDemand Inlet Node, VarName=SYSTEM NODE MASS FLOW RATE, Frequency=TimeStep
   ************* Key=DataCenter_ExtraWaterHeatCDemand Inlet Node, VarName=SYSTEM NODE TEMPERATURE, Frequency=TimeStep
   ************* Key=DataCenter_ExtraWaterHeatCDemand Outlet Node, VarName=SYSTEM NODE MASS FLOW RATE, Frequency=TimeStep
   ************* Key=DataCenter_ExtraWaterHeatCDemand Outlet Node, VarName=SYSTEM NODE TEMPERATURE, Frequency=TimeStep
   ************* Key=DataCenter_ExtraElecHeatC-DataCenter_ExtraWaterHeatCNode, VarName=SYSTEM NODE MASS FLOW RATE, Frequency=TimeStep
   ************* Key=DataCenter_ExtraElecHeatC-DataCenter_ExtraWaterHeatCNode, VarName=SYSTEM NODE TEMPERATURE, Frequency=TimeStep
   ************* Key=AirLoop DataCenter Basement Supply Air Outlet, VarName=SYSTEM NODE MASS FLOW RATE, Frequency=TimeStep
   ************* Key=AirLoop DataCenter Basement Supply Air Outlet, VarName=SYSTEM NODE TEMPERATURE, Frequency=TimeStep
   ************* Key=AirLoop DataCenter Basement Water to Air Heat Pump Source Side2 Inlet Node, VarName=SYSTEM NODE MASS FLOW RATE, Frequency=TimeStep
   ************* Key=AirLoop DataCenter Basement Water to Air Heat Pump Source Side2 Inlet Node, VarName=SYSTEM NODE TEMPERATURE, Frequency=TimeStep
   ************* Key=AirLoop DataCenter Basement Water to Air Heat Pump Source Side2 Outlet Node, VarName=SYSTEM NODE MASS FLOW RATE, Frequency=TimeStep
   ************* Key=AirLoop DataCenter Basement Water to Air Heat Pump Source Side2 Outlet Node, VarName=SYSTEM NODE TEMPERATURE, Frequency=TimeStep
   ************* Key=CAV_bas_HeatC-CAV_FanNode, VarName=SYSTEM NODE MASS FLOW RATE, Frequency=TimeStep
   ************* Key=CAV_bas_HeatC-CAV_FanNode, VarName=SYSTEM NODE TEMPERATURE, Frequency=TimeStep
   ************* Key=CAV_bas Supply Equipment Outlet Node, VarName=SYSTEM NODE MASS FLOW RATE, Frequency=TimeStep
   ************* Key=CAV_bas Supply Equipment Outlet Node, VarName=SYSTEM NODE TEMPERATURE, Frequency=TimeStep
   ************* Key=CAV_bas_CoolCDemand Inlet Node, VarName=SYSTEM NODE MASS FLOW RATE, Frequency=TimeStep
   ************* Key=CAV_bas_CoolCDemand Inlet Node, VarName=SYSTEM NODE TEMPERATURE, Frequency=TimeStep
   ************* Key=CAV_bas_CoolCDemand Outlet Node, VarName=SYSTEM NODE MASS FLOW RATE, Frequency=TimeStep
   ************* Key=CAV_bas_CoolCDemand Outlet Node, VarName=SYSTEM NODE TEMPERATURE, Frequency=TimeStep
   ************* Key=CAV_bas_OA-CAV_CoolCNode, VarName=SYSTEM NODE MASS FLOW RATE, Frequency=TimeStep
   ************* Key=CAV_bas_OA-CAV_CoolCNode, VarName=SYSTEM NODE TEMPERATURE, Frequency=TimeStep
   ************* Key=CAV_bas_CoolC-CAV_HeatCNode, VarName=SYSTEM NODE MASS FLOW RATE, Frequency=TimeStep
   ************* Key=CAV_bas_CoolC-CAV_HeatCNode, VarName=SYSTEM NODE TEMPERATURE, Frequency=TimeStep
   ************* Key=CAV_bas_HeatCDemand Inlet Node, VarName=SYSTEM NODE MASS FLOW RATE, Frequency=TimeStep
   ************* Key=CAV_bas_HeatCDemand Inlet Node, VarName=SYSTEM NODE TEMPERATURE, Frequency=TimeStep
   ************* Key=CAV_bas_HeatCDemand Outlet Node, VarName=SYSTEM NODE MASS FLOW RATE, Frequency=TimeStep
   ************* Key=CAV_bas_HeatCDemand Outlet Node, VarName=SYSTEM NODE TEMPERATURE, Frequency=TimeStep
   ************* Key=Basement Direct Air Inlet Node Name, VarName=SYSTEM NODE MASS FLOW RATE, Frequency=TimeStep
   ************* Key=DataCenter Basement Supply Inlet, VarName=SYSTEM NODE TEMPERATURE, Frequency=TimeStep
   ************* Key=Basement Direct Air Inlet Node Name, VarName=SYSTEM NODE MASS FLOW RATE, Frequency=TimeStep
   ************* Key=DataCenter Basement Supply Inlet, VarName=SYSTEM NODE TEMPERATURE, Frequency=TimeStep
   ************* Key=GroundFloor_Plenum Outlet Node, VarName=SYSTEM NODE MASS FLOW RATE, Frequency=TimeStep
   ************* Key=GroundFloor_Plenum Outlet Node, VarName=SYSTEM NODE TEMPERATURE, Frequency=TimeStep
   ************* Key=MidFloor_Plenum Outlet Node, VarName=SYSTEM NODE MASS FLOW RATE, Frequency=TimeStep
   ************* Key=MidFloor_Plenum Outlet Node, VarName=SYSTEM NODE TEMPERATURE, Frequency=TimeStep
   ************* Key=TopFloor_Plenum Outlet Node, VarName=SYSTEM NODE MASS FLOW RATE, Frequency=TimeStep
   ************* Key=TopFloor_Plenum Outlet Node, VarName=SYSTEM NODE TEMPERATURE, Frequency=TimeStep
   ************* Key=AirLoop DataCenter bot Supply Air Outlet, VarName=SYSTEM NODE MASS FLOW RATE, Frequency=TimeStep
   ************* Key=AirLoop DataCenter bot Supply Air Outlet, VarName=SYSTEM NODE TEMPERATURE, Frequency=TimeStep
   ************* Key=AirLoop DataCenter mid Supply Air Outlet, VarName=SYSTEM NODE MASS FLOW RATE, Frequency=TimeStep
   ************* Key=AirLoop DataCenter mid Supply Air Outlet, VarName=SYSTEM NODE TEMPERATURE, Frequency=TimeStep
   ************* Key=AirLoop DataCenter top Supply Air Outlet, VarName=SYSTEM NODE MASS FLOW RATE, Frequency=TimeStep
   ************* Key=AirLoop DataCenter top Supply Air Outlet, VarName=SYSTEM NODE TEMPERATURE, Frequency=TimeStep
   ************* There are 11 unused schedules in input.
   ************* There are 10 unused week schedules in input.
   ************* There are 51 unused day schedules in input.
   ************* Use Output:Diagnostics,DisplayUnusedSchedules; to see them.
   *************
   ************* ===== Recurring Error Summary =====
   ************* The following recurring error messages occurred.
   *************
   *************  ** Warning ** Plant loop exceeding upper temperature limit, PlantLoop="MAIN SERVICE WATER LOOP"
   *************  **   ~~~   **   This error occurred 388 total times;
   *************  **   ~~~   **   during Warmup 42 times;
   *************  **   ~~~   **   during Sizing 0 times.
   *************  **   ~~~   **   Max=67.266152
   *************
   *************
   ************* ===== Final Error Summary =====
   ************* The following error categories occurred.  Consider correcting or noting.
   ************* Nominally Unused Constructions
   ************* ..The nominally unused constructions warning is provided to alert you to potential conditions that can cause
   ************* ..extra time during simulation. Each construction is calculated by the algorithm indicated in the HeatBalanceAlgorithm
   ************* ..object. You may remove the constructions indicated (when you use the DisplayExtraWarnings option).
   *************
   ************* EnergyPlus Warmup Error Summary. During Warmup: 0 Warning; 0 Severe Errors.
   ************* EnergyPlus Sizing Error Summary. During Sizing: 141 Warning; 0 Severe Errors.
   ************* EnergyPlus Completed Successfully-- 543 Warning; 0 Severe Errors; Elapsed Time=00hr 01min 28.87sec
