Program Version,EnergyPlus, Version 8.9.0-40101eaafd, YMD=2018.07.30 14:09
! <Version>, Version ID
 Version, 8.9
! <Timesteps per Hour>, #TimeSteps, Minutes per TimeStep {minutes}
 Timesteps per Hour, 12,  5
! <System Convergence Limits>, Minimum System TimeStep {minutes}, Max HVAC Iterations, Minimum Plant Iterations, Maximum Plant Iterations
 System Convergence Limits, 1, 20, 2, 8
! <Simulation Control>, Do Zone Sizing, Do System Sizing, Do Plant Sizing, Do Design Days, Do Weather Simulation, Do HVAC Sizing Simulation
 Simulation Control, Yes, Yes, Yes, No, Yes, No
! <Output Reporting Tolerances>, Tolerance for Time Heating Setpoint Not Met, Tolerance for Zone Cooling Setpoint Not Met Time
 Output Reporting Tolerances, 0.200, 0.200, 
! <Site:GroundTemperature:BuildingSurface>,Jan{C},Feb{C},Mar{C},Apr{C},May{C},Jun{C},Jul{C},Aug{C},Sep{C},Oct{C},Nov{C},Dec{C}
 Site:GroundTemperature:BuildingSurface,  19.53,  19.50,  19.54,  19.60,  20.00,  21.64,  22.23,  22.38,  21.45,  20.12,  19.80,  19.63
! <Site:GroundTemperature:FCfactorMethod>,Jan{C},Feb{C},Mar{C},Apr{C},May{C},Jun{C},Jul{C},Aug{C},Sep{C},Oct{C},Nov{C},Dec{C}
 Site:GroundTemperature:FCfactorMethod,   2.54,   1.49,   3.34,   6.25,  13.83,  19.69,  23.64,  24.84,  22.79,  18.25,  12.17,   6.53
! <Site:GroundTemperature:Shallow>,Jan{C},Feb{C},Mar{C},Apr{C},May{C},Jun{C},Jul{C},Aug{C},Sep{C},Oct{C},Nov{C},Dec{C}
 Site:GroundTemperature:Shallow,  13.00,  13.00,  13.00,  13.00,  13.00,  13.00,  13.00,  13.00,  13.00,  13.00,  13.00,  13.00
! <Site:GroundTemperature:Deep>,Jan{C},Feb{C},Mar{C},Apr{C},May{C},Jun{C},Jul{C},Aug{C},Sep{C},Oct{C},Nov{C},Dec{C}
 Site:GroundTemperature:Deep,  16.00,  16.00,  16.00,  16.00,  16.00,  16.00,  16.00,  16.00,  16.00,  16.00,  16.00,  16.00
! <Site:GroundReflectance>,Jan{dimensionless},Feb{dimensionless},Mar{dimensionless},Apr{dimensionless},May{dimensionless},Jun{dimensionless},Jul{dimensionless},Aug{dimensionless},Sep{dimensionless},Oct{dimensionless},Nov{dimensionless},Dec{dimensionless}
 Site:GroundReflectance,  0.20,  0.20,  0.20,  0.20,  0.20,  0.20,  0.20,  0.20,  0.20,  0.20,  0.20,  0.20
! <Site:GroundReflectance:SnowModifier>, Normal, Daylighting {dimensionless}
 Site:GroundReflectance:SnowModifier,   1.000,   1.000
! <Site:GroundReflectance:Snow>,Jan{dimensionless},Feb{dimensionless},Mar{dimensionless},Apr{dimensionless},May{dimensionless},Jun{dimensionless},Jul{dimensionless},Aug{dimensionless},Sep{dimensionless},Oct{dimensionless},Nov{dimensionless},Dec{dimensionless}
 Site:GroundReflectance:Snow,  0.20,  0.20,  0.20,  0.20,  0.20,  0.20,  0.20,  0.20,  0.20,  0.20,  0.20,  0.20
! <Site:GroundReflectance:Snow:Daylighting>,Jan{dimensionless},Feb{dimensionless},Mar{dimensionless},Apr{dimensionless},May{dimensionless},Jun{dimensionless},Jul{dimensionless},Aug{dimensionless},Sep{dimensionless},Oct{dimensionless},Nov{dimensionless},Dec{dimensionless}
 Site:GroundReflectance:Snow:Daylighting,  0.20,  0.20,  0.20,  0.20,  0.20,  0.20,  0.20,  0.20,  0.20,  0.20,  0.20,  0.20
! <Environment:Weather Station>,Wind Sensor Height Above Ground {m},Wind Speed Profile Exponent {},Wind Speed Profile Boundary Layer Thickness {m},Air Temperature Sensor Height Above Ground {m},Wind Speed Modifier Coefficient-Internal,Temperature Modifier Coefficient-Internal
Environment:Weather Station,10.000,0.140,270.000,1.500,1.586,9.750E-003
! <Site:Location>, Location Name, Latitude {N+/S- Deg}, Longitude {E+/W- Deg},  Time Zone Number {GMT+/-}, Elevation {m},  Standard Pressure at Elevation {Pa}, Standard RhoAir at Elevation
Site:Location,Baltimore Blt Washngtn IntL MD USA TMY3 WMO#=724060,39.17,-76.68,-5.00,45.00,100786,1.1979
! <Building Information>, Building Name,North Axis {deg},Terrain,  Loads Convergence Tolerance Value,Temperature Convergence Tolerance Value,  Solar Distribution,Maximum Number of Warmup Days,Minimum Number of Warmup Days
 Building Information,90.1-2010-LargeOffice-ASHRAE 169-2006-4A created: 2018-04-25 10:22:18 -0600,0.000,City,4.00000E-002,0.20000,FullInteriorAndExterior,25,6
! <Inside Convection Algorithm>, Algorithm {Simple | TARP | CeilingDiffuser | AdaptiveConvectionAlgorithm}
Inside Convection Algorithm,TARP
! <Outside Convection Algorithm>, Algorithm {SimpleCombined | TARP | MoWitt | DOE-2 | AdaptiveConvectionAlgorithm}
Outside Convection Algorithm,TARP
! <Sky Radiance Distribution>, Value {Anisotropic}
Sky Radiance Distribution,Anisotropic
! <Zone Air Solution Algorithm>, Value {ThirdOrderBackwardDifference | AnalyticalSolution | EulerMethod}
 Zone Air Solution Algorithm, ThirdOrderBackwardDifference
! <Zone Air Carbon Dioxide Balance Simulation>, Simulation {Yes/No}, Carbon Dioxide Concentration
 Zone Air Carbon Dioxide Balance Simulation, No,N/A
! <Zone Air Generic Contaminant Balance Simulation>, Simulation {Yes/No}, Generic Contaminant Concentration
 Zone Air Generic Contaminant Balance Simulation, No,N/A
! <Zone Air Mass Flow Balance Simulation>, Enforce Mass Balance, Adjust Zone Mixing, Adjust Zone Infiltration {AddInfiltration | AdjustInfiltration | None}, Infiltration Zones {MixingSourceZonesOnly | AllZones}
 Zone Air Mass Flow Balance Simulation, No,N/A,N/A,N/A
! <HVACSystemRootFindingAlgorithm>, Value {RegulaFalsi | Bisection | BisectionThenRegulaFalsi | RegulaFalsiThenBisection}
 HVACSystemRootFindingAlgorithm, RegulaFalsi
! <Environment:Site Atmospheric Variation>,Wind Speed Profile Exponent {},Wind Speed Profile Boundary Layer Thickness {m},Air Temperature Gradient Coefficient {K/m}
Environment:Site Atmospheric Variation,0.330,460.000,6.500000E-003
! <Surface Geometry>,Starting Corner,Vertex Input Direction,Coordinate System,Daylight Reference Point Coordinate System,Rectangular (Simple) Surface Coordinate System
 Surface Geometry,UpperLeftCorner,Counterclockwise,RelativeCoordinateSystem,RelativeCoordinateSystem,RelativeToZoneOrigin
! <Surface Heat Transfer Algorithm>, Value {CTF - ConductionTransferFunction | EMPD - MoisturePenetrationDepthConductionTransferFunction | CondFD - ConductionFiniteDifference | HAMT - CombinedHeatAndMoistureFiniteElement} - Description,Inside Surface Max Temperature Limit{C}, Surface Convection Coefficient Lower Limit {W/m2-K}, Surface Convection Coefficient Upper Limit {W/m2-K}
Surface Heat Transfer Algorithm, CTF - ConductionTransferFunction,200,0.10,1000.0
! <Shading Summary>, Number of Fixed Detached Shades, Number of Building Detached Shades, Number of Attached Shades
 Shading Summary,0,0,0
! <Zone Summary>, Number of Zones, Number of Zone Surfaces, Number of SubSurfaces
 Zone Summary,23,201,12
! <Zone Information>,Zone Name,North Axis {deg},Origin X-Coordinate {m},Origin Y-Coordinate {m},Origin Z-Coordinate {m},Centroid X-Coordinate {m},Centroid Y-Coordinate {m},Centroid Z-Coordinate {m},Type,Zone Multiplier,Zone List Multiplier,Minimum X {m},Maximum X {m},Minimum Y {m},Maximum Y {m},Minimum Z {m},Maximum Z {m},Ceiling Height {m},Volume {m3},Zone Inside Convection Algorithm {Simple-Detailed-CeilingDiffuser-TrombeWall},Zone Outside Convection Algorithm {Simple-Detailed-Tarp-MoWitt-DOE-2-BLAST}, Floor Area {m2},Exterior Gross Wall Area {m2},Exterior Net Wall Area {m2},Exterior Window Area {m2}, Number of Surfaces, Number of SubSurfaces, Number of Shading SubSurfaces,  Part of Total Building Area
 Zone Information, BASEMENT ZN,0.0,16.08,0.00,-2.44,44.59,24.37,-1.22,1,1,1,16.08,73.11,0.00,48.74,-2.44,0.00,2.44,6779.02,TARP,TARP,2779.43,0.00,0.00,0.00,9,0,0,Yes
 Zone Information, CORE_BOTTOM ZN,0.0,5.49,4.57,0.00,37.01,24.37,1.37,1,1,1,5.49,68.53,4.57,44.17,0.00,2.74,2.74,6849.35,TARP,TARP,2496.12,0.00,0.00,0.00,7,0,0,Yes
 Zone Information, CORE_MID ZN,0.0,5.49,4.57,19.82,37.01,24.37,21.19,1,10,1,5.49,68.53,4.57,44.17,19.82,22.56,2.74,6849.35,TARP,TARP,2496.12,0.00,0.00,0.00,6,0,0,Yes
 Zone Information, CORE_TOP ZN,0.0,5.49,4.57,43.60,37.01,24.37,44.97,1,1,1,5.49,68.53,4.57,44.17,43.60,46.34,2.74,6849.35,TARP,TARP,2496.12,0.00,0.00,0.00,6,0,0,Yes
 Zone Information, DATACENTER_BASEMENT_ZN_6 ZN,0.0,0.00,0.00,-2.44,8.04,24.37,-1.22,1,1,1,0.00,16.08,0.00,48.74,-2.44,0.00,2.44,1911.37,TARP,TARP,783.68,0.00,0.00,0.00,10,0,0,Yes
 Zone Information, DATACENTER_BOT_ZN_6 ZN,0.0,4.57,4.57,0.00,5.03,24.37,1.37,1,1,1,4.57,5.49,4.57,44.17,0.00,2.74,2.74,99.34,TARP,TARP,36.20,0.00,0.00,0.00,6,0,0,Yes
 Zone Information, DATACENTER_MID_ZN_6 ZN,0.0,4.57,4.57,19.82,5.03,24.37,21.19,1,10,1,4.57,5.49,4.57,44.17,19.82,22.56,2.74,99.34,TARP,TARP,36.20,0.00,0.00,0.00,6,0,0,Yes
 Zone Information, DATACENTER_TOP_ZN_6 ZN,0.0,4.57,4.57,43.60,5.03,24.37,44.97,1,1,1,4.57,5.49,4.57,44.17,43.60,46.34,2.74,99.34,TARP,TARP,36.20,0.00,0.00,0.00,6,0,0,Yes
 Zone Information, GROUNDFLOOR_PLENUM ZN,0.0,0.00,0.00,2.74,36.55,24.37,3.35,1,1,1,0.00,73.11,0.00,48.74,2.74,3.96,1.22,4344.14,TARP,TARP,3563.11,297.11,297.11,0.00,11,0,0,No
 Zone Information, MIDFLOOR_PLENUM ZN,0.0,0.00,0.00,22.56,36.55,24.37,23.17,1,10,1,0.00,73.11,0.00,48.74,22.56,23.78,1.22,4344.14,TARP,TARP,3563.11,297.11,297.11,0.00,11,0,0,No
 Zone Information, PERIMETER_BOT_ZN_1 ZN,0.0,0.00,0.00,0.00,36.55,2.20,1.37,1,1,1,0.00,73.11,0.00,4.57,0.00,2.74,2.74,860.02,TARP,TARP,313.42,200.61,84.71,115.90,8,1,0,Yes
 Zone Information, PERIMETER_BOT_ZN_2 ZN,0.0,68.53,0.00,0.00,70.95,24.37,1.37,1,1,1,68.53,73.11,0.00,48.74,0.00,2.74,2.74,554.22,TARP,TARP,201.98,133.74,56.47,77.26,6,1,0,Yes
 Zone Information, PERIMETER_BOT_ZN_3 ZN,0.0,0.00,44.17,0.00,36.55,46.54,1.37,1,1,1,0.00,73.11,44.17,48.74,0.00,2.74,2.74,860.00,TARP,TARP,313.41,200.61,84.71,115.90,8,1,0,Yes
 Zone Information, PERIMETER_BOT_ZN_4 ZN,0.0,0.00,0.00,0.00,2.16,24.37,1.37,1,1,1,0.00,4.57,0.00,48.74,0.00,2.74,2.74,554.22,TARP,TARP,201.98,133.74,56.47,77.26,6,1,0,Yes
 Zone Information, PERIMETER_MID_ZN_1 ZN,0.0,0.00,0.00,19.82,36.55,2.20,21.19,1,10,1,0.00,73.11,0.00,4.57,19.82,22.56,2.74,860.02,TARP,TARP,313.42,200.61,84.71,115.90,7,1,0,Yes
 Zone Information, PERIMETER_MID_ZN_2 ZN,0.0,68.53,0.00,19.82,70.95,24.37,21.19,1,10,1,68.53,73.11,0.00,48.74,19.82,22.56,2.74,554.22,TARP,TARP,201.98,133.74,56.47,77.26,6,1,0,Yes
 Zone Information, PERIMETER_MID_ZN_3 ZN,0.0,0.00,44.17,19.82,36.55,46.54,21.19,1,10,1,0.00,73.11,44.17,48.74,19.82,22.56,2.74,860.00,TARP,TARP,313.41,200.61,84.71,115.90,7,1,0,Yes
 Zone Information, PERIMETER_MID_ZN_4 ZN,0.0,0.00,0.00,19.82,2.16,24.37,21.19,1,10,1,0.00,4.57,0.00,48.74,19.82,22.56,2.74,554.22,TARP,TARP,201.98,133.74,56.47,77.26,6,1,0,Yes
 Zone Information, PERIMETER_TOP_ZN_1 ZN,0.0,-7.22E-016,0.00,43.60,36.55,2.20,44.97,1,1,1,-7.22E-016,73.11,0.00,4.57,43.60,46.34,2.74,860.02,TARP,TARP,313.42,200.61,84.71,115.90,7,1,0,Yes
 Zone Information, PERIMETER_TOP_ZN_2 ZN,0.0,68.53,0.00,43.60,70.95,24.37,44.97,1,1,1,68.53,73.11,0.00,48.74,43.60,46.34,2.74,554.22,TARP,TARP,201.98,133.74,56.47,77.26,6,1,0,Yes
 Zone Information, PERIMETER_TOP_ZN_3 ZN,0.0,-7.22E-016,44.17,43.60,36.55,46.54,44.97,1,1,1,-7.22E-016,73.11,44.17,48.74,43.60,46.34,2.74,860.00,TARP,TARP,313.41,200.61,84.71,115.90,7,1,0,Yes
 Zone Information, PERIMETER_TOP_ZN_4 ZN,0.0,-7.22E-016,0.00,43.60,2.16,24.37,44.97,1,1,1,-7.22E-016,4.57,0.00,48.74,43.60,46.34,2.74,554.22,TARP,TARP,201.98,133.74,56.47,77.26,6,1,0,Yes
 Zone Information, TOPFLOOR_PLENUM ZN,0.0,-7.22E-016,0.00,46.34,36.55,24.37,46.95,1,1,1,-7.22E-016,73.11,0.00,48.74,46.34,47.56,1.22,4344.14,TARP,TARP,3563.11,297.11,297.11,0.00,11,0,0,No
! <Zone Internal Gains Nominal>,Zone Name, Floor Area {m2},# Occupants,Area per Occupant {m2/person},Occupant per Area {person/m2},Interior Lighting {W/m2},Electric Load {W/m2},Gas Load {W/m2},Other Load {W/m2},Hot Water Eq {W/m2},Steam Equipment {W/m2},Sum Loads per Area {W/m2},Outdoor Controlled Baseboard Heat
 Zone Internal Gains Nominal, BASEMENT ZN,2779.43,149.6,18.581,5.382E-002,9.688,8.070,0.000,0.000,0.000,0.000,17.758,No
 Zone Internal Gains Nominal, CORE_BOTTOM ZN,2496.12,134.3,18.581,5.382E-002,9.688,8.070,0.000,0.000,0.000,0.000,17.758,No
 Zone Internal Gains Nominal, CORE_MID ZN,2496.12,134.3,18.581,5.382E-002,9.688,8.070,0.000,0.000,0.000,0.000,17.758,No
 Zone Internal Gains Nominal, CORE_TOP ZN,2496.12,134.3,18.581,5.382E-002,9.688,8.070,0.000,0.000,0.000,0.000,17.758,No
 Zone Internal Gains Nominal, DATACENTER_BASEMENT_ZN_6 ZN,783.68,0.0,N/A,0.000,9.688,484.376,0.000,0.000,0.000,0.000,494.063,No
 Zone Internal Gains Nominal, DATACENTER_BOT_ZN_6 ZN,36.20,0.0,N/A,0.000,9.688,215.278,0.000,0.000,0.000,0.000,224.966,No
 Zone Internal Gains Nominal, DATACENTER_MID_ZN_6 ZN,36.20,0.0,N/A,0.000,9.688,215.278,0.000,0.000,0.000,0.000,224.966,No
 Zone Internal Gains Nominal, DATACENTER_TOP_ZN_6 ZN,36.20,0.0,N/A,0.000,9.688,215.278,0.000,0.000,0.000,0.000,224.966,No
 Zone Internal Gains Nominal, GROUNDFLOOR_PLENUM ZN,3563.11,0.0,N/A,0.000,0.000,0.000,0.000,0.000,0.000,0.000,0.000,No
 Zone Internal Gains Nominal, MIDFLOOR_PLENUM ZN,3563.11,0.0,N/A,0.000,0.000,0.000,0.000,0.000,0.000,0.000,0.000,No
 Zone Internal Gains Nominal, PERIMETER_BOT_ZN_1 ZN,313.42,16.9,18.581,5.382E-002,9.688,8.070,0.000,0.000,0.000,0.000,17.758,No
 Zone Internal Gains Nominal, PERIMETER_BOT_ZN_2 ZN,201.98,10.9,18.581,5.382E-002,9.688,8.070,0.000,0.000,0.000,0.000,17.758,No
 Zone Internal Gains Nominal, PERIMETER_BOT_ZN_3 ZN,313.41,16.9,18.581,5.382E-002,9.688,8.070,0.000,0.000,0.000,0.000,17.758,No
 Zone Internal Gains Nominal, PERIMETER_BOT_ZN_4 ZN,201.98,10.9,18.581,5.382E-002,9.688,8.070,0.000,0.000,0.000,0.000,17.758,No
 Zone Internal Gains Nominal, PERIMETER_MID_ZN_1 ZN,313.42,16.9,18.581,5.382E-002,9.688,8.070,0.000,0.000,0.000,0.000,17.758,No
 Zone Internal Gains Nominal, PERIMETER_MID_ZN_2 ZN,201.98,10.9,18.581,5.382E-002,9.688,8.070,0.000,0.000,0.000,0.000,17.758,No
 Zone Internal Gains Nominal, PERIMETER_MID_ZN_3 ZN,313.41,16.9,18.581,5.382E-002,9.688,8.070,0.000,0.000,0.000,0.000,17.758,No
 Zone Internal Gains Nominal, PERIMETER_MID_ZN_4 ZN,201.98,10.9,18.581,5.382E-002,9.688,8.070,0.000,0.000,0.000,0.000,17.758,No
 Zone Internal Gains Nominal, PERIMETER_TOP_ZN_1 ZN,313.42,16.9,18.581,5.382E-002,9.688,8.070,0.000,0.000,0.000,0.000,17.758,No
 Zone Internal Gains Nominal, PERIMETER_TOP_ZN_2 ZN,201.98,10.9,18.581,5.382E-002,9.688,8.070,0.000,0.000,0.000,0.000,17.758,No
 Zone Internal Gains Nominal, PERIMETER_TOP_ZN_3 ZN,313.41,16.9,18.581,5.382E-002,9.688,8.070,0.000,0.000,0.000,0.000,17.758,No
 Zone Internal Gains Nominal, PERIMETER_TOP_ZN_4 ZN,201.98,10.9,18.581,5.382E-002,9.688,8.070,0.000,0.000,0.000,0.000,17.758,No
 Zone Internal Gains Nominal, TOPFLOOR_PLENUM ZN,3563.11,0.0,N/A,0.000,0.000,0.000,0.000,0.000,0.000,0.000,0.000,No
! <People Internal Gains Nominal>,Name,Schedule Name,Zone Name,Zone Floor Area {m2},# Zone Occupants,Number of People {},People/Floor Area {person/m2},Floor Area per person {m2/person},Fraction Radiant,Fraction Convected,Sensible Fraction Calculation,Activity level,ASHRAE 55 Warnings,Carbon Dioxide Generation Rate,Nominal Minimum Number of People,Nominal Maximum Number of People
 People Internal Gains Nominal, BASEMENT ZN OFFICE WHOLEBUILDING - LG OFFICE PEOPLE,OFFICELARGE BLDG_OCC_SCH,BASEMENT ZN,2779.43,149.6,149.6,5.382E-002,18.581,0.300,0.700,AutoCalculate,OFFICELARGE ACTIVITY_SCH,No,3.8200E-008,0,150
 People Internal Gains Nominal, CORE_BOTTOM ZN OFFICE WHOLEBUILDING - LG OFFICE PEOPLE,OFFICELARGE BLDG_OCC_SCH,CORE_BOTTOM ZN,2496.12,134.3,134.3,5.382E-002,18.581,0.300,0.700,AutoCalculate,OFFICELARGE ACTIVITY_SCH,No,3.8200E-008,0,134
 People Internal Gains Nominal, CORE_MID ZN OFFICE WHOLEBUILDING - LG OFFICE PEOPLE,OFFICELARGE BLDG_OCC_SCH,CORE_MID ZN,2496.12,134.3,134.3,5.382E-002,18.581,0.300,0.700,AutoCalculate,OFFICELARGE ACTIVITY_SCH,No,3.8200E-008,0,134
 People Internal Gains Nominal, CORE_TOP ZN OFFICE WHOLEBUILDING - LG OFFICE PEOPLE,OFFICELARGE BLDG_OCC_SCH,CORE_TOP ZN,2496.12,134.3,134.3,5.382E-002,18.581,0.300,0.700,AutoCalculate,OFFICELARGE ACTIVITY_SCH,No,3.8200E-008,0,134
 People Internal Gains Nominal, PERIMETER_BOT_ZN_1 ZN OFFICE WHOLEBUILDING - LG OFFICE PEOPLE,OFFICELARGE BLDG_OCC_SCH,PERIMETER_BOT_ZN_1 ZN,313.42,16.9,16.9,5.382E-002,18.581,0.300,0.700,AutoCalculate,OFFICELARGE ACTIVITY_SCH,No,3.8200E-008,0,17
 People Internal Gains Nominal, PERIMETER_BOT_ZN_2 ZN OFFICE WHOLEBUILDING - LG OFFICE PEOPLE,OFFICELARGE BLDG_OCC_SCH,PERIMETER_BOT_ZN_2 ZN,201.98,10.9,10.9,5.382E-002,18.581,0.300,0.700,AutoCalculate,OFFICELARGE ACTIVITY_SCH,No,3.8200E-008,0,11
 People Internal Gains Nominal, PERIMETER_BOT_ZN_3 ZN OFFICE WHOLEBUILDING - LG OFFICE PEOPLE,OFFICELARGE BLDG_OCC_SCH,PERIMETER_BOT_ZN_3 ZN,313.41,16.9,16.9,5.382E-002,18.581,0.300,0.700,AutoCalculate,OFFICELARGE ACTIVITY_SCH,No,3.8200E-008,0,17
 People Internal Gains Nominal, PERIMETER_BOT_ZN_4 ZN OFFICE WHOLEBUILDING - LG OFFICE PEOPLE,OFFICELARGE BLDG_OCC_SCH,PERIMETER_BOT_ZN_4 ZN,201.98,10.9,10.9,5.382E-002,18.581,0.300,0.700,AutoCalculate,OFFICELARGE ACTIVITY_SCH,No,3.8200E-008,0,11
 People Internal Gains Nominal, PERIMETER_MID_ZN_1 ZN OFFICE WHOLEBUILDING - LG OFFICE PEOPLE,OFFICELARGE BLDG_OCC_SCH,PERIMETER_MID_ZN_1 ZN,313.42,16.9,16.9,5.382E-002,18.581,0.300,0.700,AutoCalculate,OFFICELARGE ACTIVITY_SCH,No,3.8200E-008,0,17
 People Internal Gains Nominal, PERIMETER_MID_ZN_2 ZN OFFICE WHOLEBUILDING - LG OFFICE PEOPLE,OFFICELARGE BLDG_OCC_SCH,PERIMETER_MID_ZN_2 ZN,201.98,10.9,10.9,5.382E-002,18.581,0.300,0.700,AutoCalculate,OFFICELARGE ACTIVITY_SCH,No,3.8200E-008,0,11
 People Internal Gains Nominal, PERIMETER_MID_ZN_3 ZN OFFICE WHOLEBUILDING - LG OFFICE PEOPLE,OFFICELARGE BLDG_OCC_SCH,PERIMETER_MID_ZN_3 ZN,313.41,16.9,16.9,5.382E-002,18.581,0.300,0.700,AutoCalculate,OFFICELARGE ACTIVITY_SCH,No,3.8200E-008,0,17
 People Internal Gains Nominal, PERIMETER_MID_ZN_4 ZN OFFICE WHOLEBUILDING - LG OFFICE PEOPLE,OFFICELARGE BLDG_OCC_SCH,PERIMETER_MID_ZN_4 ZN,201.98,10.9,10.9,5.382E-002,18.581,0.300,0.700,AutoCalculate,OFFICELARGE ACTIVITY_SCH,No,3.8200E-008,0,11
 People Internal Gains Nominal, PERIMETER_TOP_ZN_1 ZN OFFICE WHOLEBUILDING - LG OFFICE PEOPLE,OFFICELARGE BLDG_OCC_SCH,PERIMETER_TOP_ZN_1 ZN,313.42,16.9,16.9,5.382E-002,18.581,0.300,0.700,AutoCalculate,OFFICELARGE ACTIVITY_SCH,No,3.8200E-008,0,17
 People Internal Gains Nominal, PERIMETER_TOP_ZN_2 ZN OFFICE WHOLEBUILDING - LG OFFICE PEOPLE,OFFICELARGE BLDG_OCC_SCH,PERIMETER_TOP_ZN_2 ZN,201.98,10.9,10.9,5.382E-002,18.581,0.300,0.700,AutoCalculate,OFFICELARGE ACTIVITY_SCH,No,3.8200E-008,0,11
 People Internal Gains Nominal, PERIMETER_TOP_ZN_3 ZN OFFICE WHOLEBUILDING - LG OFFICE PEOPLE,OFFICELARGE BLDG_OCC_SCH,PERIMETER_TOP_ZN_3 ZN,313.41,16.9,16.9,5.382E-002,18.581,0.300,0.700,AutoCalculate,OFFICELARGE ACTIVITY_SCH,No,3.8200E-008,0,17
 People Internal Gains Nominal, PERIMETER_TOP_ZN_4 ZN OFFICE WHOLEBUILDING - LG OFFICE PEOPLE,OFFICELARGE BLDG_OCC_SCH,PERIMETER_TOP_ZN_4 ZN,201.98,10.9,10.9,5.382E-002,18.581,0.300,0.700,AutoCalculate,OFFICELARGE ACTIVITY_SCH,No,3.8200E-008,0,11
! <Lights Internal Gains Nominal>,Name,Schedule Name,Zone Name,Zone Floor Area {m2},# Zone Occupants,Lighting Level {W},Lights/Floor Area {W/m2},Lights per person {W/person},Fraction Return Air,Fraction Radiant,Fraction Short Wave,Fraction Convected,Fraction Replaceable,End-Use Category,Nominal Minimum Lighting Level {W},Nominal Maximum Lighting Level {W}
 Lights Internal Gains Nominal, DATACENTER_BOT_ZN_6 ZN OFFICE OFFICELARGE DATA CENTER LIGHTS,OFFICELARGE BLDG_LIGHT_SCH,DATACENTER_BOT_ZN_6 ZN,36.20,0.0,350.715,9.688,N/A,0.000,0.700,0.200,0.100,1.000,General,0.000,350.715
 Lights Internal Gains Nominal, DATACENTER_MID_ZN_6 ZN OFFICE OFFICELARGE DATA CENTER LIGHTS,OFFICELARGE BLDG_LIGHT_SCH,DATACENTER_MID_ZN_6 ZN,36.20,0.0,350.715,9.688,N/A,0.000,0.700,0.200,0.100,1.000,General,0.000,350.715
 Lights Internal Gains Nominal, DATACENTER_TOP_ZN_6 ZN OFFICE OFFICELARGE DATA CENTER LIGHTS,OFFICELARGE BLDG_LIGHT_SCH,DATACENTER_TOP_ZN_6 ZN,36.20,0.0,350.715,9.688,N/A,0.000,0.700,0.200,0.100,1.000,General,0.000,350.715
 Lights Internal Gains Nominal, DATACENTER_BASEMENT_ZN_6 ZN OFFICE OFFICELARGE MAIN DATA CENTER LIGHTS,OFFICELARGE BLDG_LIGHT_SCH,DATACENTER_BASEMENT_ZN_6 ZN,783.68,0.0,7591.909,9.688,N/A,0.000,0.700,0.200,0.100,1.000,General,0.000,7591.909
 Lights Internal Gains Nominal, BASEMENT ZN OFFICE WHOLEBUILDING - LG OFFICE LIGHTS,OFFICELARGE BLDG_LIGHT_SCH,BASEMENT ZN,2779.43,149.6,26925.749,9.688,180.000,0.000,0.700,0.200,0.100,1.000,General,0.000,26925.749
 Lights Internal Gains Nominal, CORE_BOTTOM ZN OFFICE WHOLEBUILDING - LG OFFICE LIGHTS,OFFICELARGE BLDG_LIGHT_SCH,CORE_BOTTOM ZN,2496.12,134.3,24181.215,9.688,180.000,0.000,0.700,0.200,0.100,1.000,General,0.000,24181.215
 Lights Internal Gains Nominal, CORE_MID ZN OFFICE WHOLEBUILDING - LG OFFICE LIGHTS,OFFICELARGE BLDG_LIGHT_SCH,CORE_MID ZN,2496.12,134.3,24181.215,9.688,180.000,0.000,0.700,0.200,0.100,1.000,General,0.000,24181.215
 Lights Internal Gains Nominal, CORE_TOP ZN OFFICE WHOLEBUILDING - LG OFFICE LIGHTS,OFFICELARGE BLDG_LIGHT_SCH,CORE_TOP ZN,2496.12,134.3,24181.215,9.688,180.000,0.000,0.700,0.200,0.100,1.000,General,0.000,24181.215
 Lights Internal Gains Nominal, PERIMETER_BOT_ZN_1 ZN OFFICE WHOLEBUILDING - LG OFFICE LIGHTS,OFFICELARGE BLDG_LIGHT_SCH,PERIMETER_BOT_ZN_1 ZN,313.42,16.9,3036.259,9.688,180.000,0.000,0.700,0.200,0.100,1.000,General,0.000,3036.259
 Lights Internal Gains Nominal, PERIMETER_BOT_ZN_2 ZN OFFICE WHOLEBUILDING - LG OFFICE LIGHTS,OFFICELARGE BLDG_LIGHT_SCH,PERIMETER_BOT_ZN_2 ZN,201.98,10.9,1956.638,9.688,180.000,0.000,0.700,0.200,0.100,1.000,General,0.000,1956.638
 Lights Internal Gains Nominal, PERIMETER_BOT_ZN_3 ZN OFFICE WHOLEBUILDING - LG OFFICE LIGHTS,OFFICELARGE BLDG_LIGHT_SCH,PERIMETER_BOT_ZN_3 ZN,313.41,16.9,3036.193,9.688,180.000,0.000,0.700,0.200,0.100,1.000,General,0.000,3036.193
 Lights Internal Gains Nominal, PERIMETER_BOT_ZN_4 ZN OFFICE WHOLEBUILDING - LG OFFICE LIGHTS,OFFICELARGE BLDG_LIGHT_SCH,PERIMETER_BOT_ZN_4 ZN,201.98,10.9,1956.638,9.688,180.000,0.000,0.700,0.200,0.100,1.000,General,0.000,1956.638
 Lights Internal Gains Nominal, PERIMETER_MID_ZN_1 ZN OFFICE WHOLEBUILDING - LG OFFICE LIGHTS,OFFICELARGE BLDG_LIGHT_SCH,PERIMETER_MID_ZN_1 ZN,313.42,16.9,3036.259,9.688,180.000,0.000,0.700,0.200,0.100,1.000,General,0.000,3036.259
 Lights Internal Gains Nominal, PERIMETER_MID_ZN_2 ZN OFFICE WHOLEBUILDING - LG OFFICE LIGHTS,OFFICELARGE BLDG_LIGHT_SCH,PERIMETER_MID_ZN_2 ZN,201.98,10.9,1956.638,9.688,180.000,0.000,0.700,0.200,0.100,1.000,General,0.000,1956.638
 Lights Internal Gains Nominal, PERIMETER_MID_ZN_3 ZN OFFICE WHOLEBUILDING - LG OFFICE LIGHTS,OFFICELARGE BLDG_LIGHT_SCH,PERIMETER_MID_ZN_3 ZN,313.41,16.9,3036.193,9.688,180.000,0.000,0.700,0.200,0.100,1.000,General,0.000,3036.193
 Lights Internal Gains Nominal, PERIMETER_MID_ZN_4 ZN OFFICE WHOLEBUILDING - LG OFFICE LIGHTS,OFFICELARGE BLDG_LIGHT_SCH,PERIMETER_MID_ZN_4 ZN,201.98,10.9,1956.638,9.688,180.000,0.000,0.700,0.200,0.100,1.000,General,0.000,1956.638
 Lights Internal Gains Nominal, PERIMETER_TOP_ZN_1 ZN OFFICE WHOLEBUILDING - LG OFFICE LIGHTS,OFFICELARGE BLDG_LIGHT_SCH,PERIMETER_TOP_ZN_1 ZN,313.42,16.9,3036.259,9.688,180.000,0.000,0.700,0.200,0.100,1.000,General,0.000,3036.259
 Lights Internal Gains Nominal, PERIMETER_TOP_ZN_2 ZN OFFICE WHOLEBUILDING - LG OFFICE LIGHTS,OFFICELARGE BLDG_LIGHT_SCH,PERIMETER_TOP_ZN_2 ZN,201.98,10.9,1956.638,9.688,180.000,0.000,0.700,0.200,0.100,1.000,General,0.000,1956.638
 Lights Internal Gains Nominal, PERIMETER_TOP_ZN_3 ZN OFFICE WHOLEBUILDING - LG OFFICE LIGHTS,OFFICELARGE BLDG_LIGHT_SCH,PERIMETER_TOP_ZN_3 ZN,313.41,16.9,3036.193,9.688,180.000,0.000,0.700,0.200,0.100,1.000,General,0.000,3036.193
 Lights Internal Gains Nominal, PERIMETER_TOP_ZN_4 ZN OFFICE WHOLEBUILDING - LG OFFICE LIGHTS,OFFICELARGE BLDG_LIGHT_SCH,PERIMETER_TOP_ZN_4 ZN,201.98,10.9,1956.638,9.688,180.000,0.000,0.700,0.200,0.100,1.000,General,0.000,1956.638
! <ElectricEquipment Internal Gains Nominal>,Name,Schedule Name,Zone Name,Zone Floor Area {m2},# Zone Occupants,Equipment Level {W},Equipment/Floor Area {W/m2},Equipment per person {W/person},Fraction Latent,Fraction Radiant,Fraction Lost,Fraction Convected,End-Use SubCategory,Nominal Minimum Equipment Level {W},Nominal Maximum Equipment Level {W}
 ElectricEquipment Internal Gains Nominal, DATACENTER_BOT_ZN_6 ZN OFFICE OFFICELARGE DATA CENTER ELEC EQUIP,OFFICELARGE ALWAYS_ON,DATACENTER_BOT_ZN_6 ZN,36.20,0.0,7793.661,215.278,N/A,0.000,0.500,0.000,0.500,General,7793.661,7793.661
 ElectricEquipment Internal Gains Nominal, DATACENTER_MID_ZN_6 ZN OFFICE OFFICELARGE DATA CENTER ELEC EQUIP,OFFICELARGE ALWAYS_ON,DATACENTER_MID_ZN_6 ZN,36.20,0.0,7793.661,215.278,N/A,0.000,0.500,0.000,0.500,General,7793.661,7793.661
 ElectricEquipment Internal Gains Nominal, DATACENTER_TOP_ZN_6 ZN OFFICE OFFICELARGE DATA CENTER ELEC EQUIP,OFFICELARGE ALWAYS_ON,DATACENTER_TOP_ZN_6 ZN,36.20,0.0,7793.661,215.278,N/A,0.000,0.500,0.000,0.500,General,7793.661,7793.661
 ElectricEquipment Internal Gains Nominal, DATACENTER_BASEMENT_ZN_6 ZN OFFICE OFFICELARGE MAIN DATA CENTER ELEC EQUIP,OFFICELARGE ALWAYS_ON,DATACENTER_BASEMENT_ZN_6 ZN,783.68,0.0,379595.471,484.376,N/A,0.000,0.500,0.000,0.500,General,379595.471,379595.471
 ElectricEquipment Internal Gains Nominal, BASEMENT ZN OFFICE WHOLEBUILDING - LG OFFICE ELEC EQUIP,OFFICELARGE BLDG_EQUIP_SCH,BASEMENT ZN,2779.43,149.6,22430.180,8.070,149.947,0.000,0.500,0.000,0.500,General,0.000,22430.180
 ElectricEquipment Internal Gains Nominal, CORE_BOTTOM ZN OFFICE WHOLEBUILDING - LG OFFICE ELEC EQUIP,OFFICELARGE BLDG_EQUIP_SCH,CORE_BOTTOM ZN,2496.12,134.3,20143.878,8.070,149.947,0.000,0.500,0.000,0.500,General,0.000,20143.878
 ElectricEquipment Internal Gains Nominal, CORE_MID ZN OFFICE WHOLEBUILDING - LG OFFICE ELEC EQUIP,OFFICELARGE BLDG_EQUIP_SCH,CORE_MID ZN,2496.12,134.3,20143.878,8.070,149.947,0.000,0.500,0.000,0.500,General,0.000,20143.878
 ElectricEquipment Internal Gains Nominal, CORE_TOP ZN OFFICE WHOLEBUILDING - LG OFFICE ELEC EQUIP,OFFICELARGE BLDG_EQUIP_SCH,CORE_TOP ZN,2496.12,134.3,20143.878,8.070,149.947,0.000,0.500,0.000,0.500,General,0.000,20143.878
 ElectricEquipment Internal Gains Nominal, PERIMETER_BOT_ZN_1 ZN OFFICE WHOLEBUILDING - LG OFFICE ELEC EQUIP,OFFICELARGE BLDG_EQUIP_SCH,PERIMETER_BOT_ZN_1 ZN,313.42,16.9,2529.320,8.070,149.947,0.000,0.500,0.000,0.500,General,0.000,2529.320
 ElectricEquipment Internal Gains Nominal, PERIMETER_BOT_ZN_2 ZN OFFICE WHOLEBUILDING - LG OFFICE ELEC EQUIP,OFFICELARGE BLDG_EQUIP_SCH,PERIMETER_BOT_ZN_2 ZN,201.98,10.9,1629.955,8.070,149.947,0.000,0.500,0.000,0.500,General,0.000,1629.955
 ElectricEquipment Internal Gains Nominal, PERIMETER_BOT_ZN_3 ZN OFFICE WHOLEBUILDING - LG OFFICE ELEC EQUIP,OFFICELARGE BLDG_EQUIP_SCH,PERIMETER_BOT_ZN_3 ZN,313.41,16.9,2529.265,8.070,149.947,0.000,0.500,0.000,0.500,General,0.000,2529.265
 ElectricEquipment Internal Gains Nominal, PERIMETER_BOT_ZN_4 ZN OFFICE WHOLEBUILDING - LG OFFICE ELEC EQUIP,OFFICELARGE BLDG_EQUIP_SCH,PERIMETER_BOT_ZN_4 ZN,201.98,10.9,1629.955,8.070,149.947,0.000,0.500,0.000,0.500,General,0.000,1629.955
 ElectricEquipment Internal Gains Nominal, PERIMETER_MID_ZN_1 ZN OFFICE WHOLEBUILDING - LG OFFICE ELEC EQUIP,OFFICELARGE BLDG_EQUIP_SCH,PERIMETER_MID_ZN_1 ZN,313.42,16.9,2529.320,8.070,149.947,0.000,0.500,0.000,0.500,General,0.000,2529.320
 ElectricEquipment Internal Gains Nominal, PERIMETER_MID_ZN_2 ZN OFFICE WHOLEBUILDING - LG OFFICE ELEC EQUIP,OFFICELARGE BLDG_EQUIP_SCH,PERIMETER_MID_ZN_2 ZN,201.98,10.9,1629.955,8.070,149.947,0.000,0.500,0.000,0.500,General,0.000,1629.955
 ElectricEquipment Internal Gains Nominal, PERIMETER_MID_ZN_3 ZN OFFICE WHOLEBUILDING - LG OFFICE ELEC EQUIP,OFFICELARGE BLDG_EQUIP_SCH,PERIMETER_MID_ZN_3 ZN,313.41,16.9,2529.265,8.070,149.947,0.000,0.500,0.000,0.500,General,0.000,2529.265
 ElectricEquipment Internal Gains Nominal, PERIMETER_MID_ZN_4 ZN OFFICE WHOLEBUILDING - LG OFFICE ELEC EQUIP,OFFICELARGE BLDG_EQUIP_SCH,PERIMETER_MID_ZN_4 ZN,201.98,10.9,1629.955,8.070,149.947,0.000,0.500,0.000,0.500,General,0.000,1629.955
 ElectricEquipment Internal Gains Nominal, PERIMETER_TOP_ZN_1 ZN OFFICE WHOLEBUILDING - LG OFFICE ELEC EQUIP,OFFICELARGE BLDG_EQUIP_SCH,PERIMETER_TOP_ZN_1 ZN,313.42,16.9,2529.320,8.070,149.947,0.000,0.500,0.000,0.500,General,0.000,2529.320
 ElectricEquipment Internal Gains Nominal, PERIMETER_TOP_ZN_2 ZN OFFICE WHOLEBUILDING - LG OFFICE ELEC EQUIP,OFFICELARGE BLDG_EQUIP_SCH,PERIMETER_TOP_ZN_2 ZN,201.98,10.9,1629.955,8.070,149.947,0.000,0.500,0.000,0.500,General,0.000,1629.955
 ElectricEquipment Internal Gains Nominal, PERIMETER_TOP_ZN_3 ZN OFFICE WHOLEBUILDING - LG OFFICE ELEC EQUIP,OFFICELARGE BLDG_EQUIP_SCH,PERIMETER_TOP_ZN_3 ZN,313.41,16.9,2529.265,8.070,149.947,0.000,0.500,0.000,0.500,General,0.000,2529.265
 ElectricEquipment Internal Gains Nominal, PERIMETER_TOP_ZN_4 ZN OFFICE WHOLEBUILDING - LG OFFICE ELEC EQUIP,OFFICELARGE BLDG_EQUIP_SCH,PERIMETER_TOP_ZN_4 ZN,201.98,10.9,1629.955,8.070,149.947,0.000,0.500,0.000,0.500,General,0.000,1629.955
! <Shadowing/Sun Position Calculations Annual Simulations>, Calculation Method, Value {days}, Allowable Number Figures in Shadow Overlap {}, Polygon Clipping Algorithm, Sky Diffuse Modeling Algorithm, External Shading Calculation Method, Output External Shading Calculation Results, Disable Self-Shading Within Shading Zone Groups, Disable Self-Shading From Shading Zone Groups to Other Zones
Shadowing/Sun Position Calculations Annual Simulations,AverageOverDaysInFrequency,20,15000,SutherlandHodgman,SimpleSkyDiffuseModeling,InternalCalculation,No,No,No
! <Zone/Window Adjacency Daylighting Counts>, Zone Name, Number of Exterior Windows, Number of Exterior Windows in Adjacent Zones
Zone/Window Adjacency Daylighting Counts, PERIMETER_BOT_ZN_1 ZN,1,0
Zone/Window Adjacency Daylighting Counts, PERIMETER_BOT_ZN_2 ZN,1,0
Zone/Window Adjacency Daylighting Counts, PERIMETER_BOT_ZN_3 ZN,1,0
Zone/Window Adjacency Daylighting Counts, PERIMETER_BOT_ZN_4 ZN,1,0
Zone/Window Adjacency Daylighting Counts, PERIMETER_MID_ZN_1 ZN,1,0
Zone/Window Adjacency Daylighting Counts, PERIMETER_MID_ZN_2 ZN,1,0
Zone/Window Adjacency Daylighting Counts, PERIMETER_MID_ZN_3 ZN,1,0
Zone/Window Adjacency Daylighting Counts, PERIMETER_MID_ZN_4 ZN,1,0
Zone/Window Adjacency Daylighting Counts, PERIMETER_TOP_ZN_1 ZN,1,0
Zone/Window Adjacency Daylighting Counts, PERIMETER_TOP_ZN_2 ZN,1,0
Zone/Window Adjacency Daylighting Counts, PERIMETER_TOP_ZN_3 ZN,1,0
Zone/Window Adjacency Daylighting Counts, PERIMETER_TOP_ZN_4 ZN,1,0
! <Zone/Window Adjacency Daylighting Matrix>, Zone Name, Number of Adjacent Zones with Windows,Adjacent Zone Names - 1st 100 (max)
Zone/Window Adjacency Daylighting Matrix, PERIMETER_BOT_ZN_1 ZN,0
Zone/Window Adjacency Daylighting Matrix, PERIMETER_BOT_ZN_2 ZN,0
Zone/Window Adjacency Daylighting Matrix, PERIMETER_BOT_ZN_3 ZN,0
Zone/Window Adjacency Daylighting Matrix, PERIMETER_BOT_ZN_4 ZN,0
Zone/Window Adjacency Daylighting Matrix, PERIMETER_MID_ZN_1 ZN,0
Zone/Window Adjacency Daylighting Matrix, PERIMETER_MID_ZN_2 ZN,0
Zone/Window Adjacency Daylighting Matrix, PERIMETER_MID_ZN_3 ZN,0
Zone/Window Adjacency Daylighting Matrix, PERIMETER_MID_ZN_4 ZN,0
Zone/Window Adjacency Daylighting Matrix, PERIMETER_TOP_ZN_1 ZN,0
Zone/Window Adjacency Daylighting Matrix, PERIMETER_TOP_ZN_2 ZN,0
Zone/Window Adjacency Daylighting Matrix, PERIMETER_TOP_ZN_3 ZN,0
Zone/Window Adjacency Daylighting Matrix, PERIMETER_TOP_ZN_4 ZN,0
! <Water Heater Information>,Type,Name,Volume {m3},Maximum Capacity {W},Standard Rated Recovery Efficiency, Standard Rated Energy Factor
! <ZoneInfiltration Airflow Stats Nominal>,Name,Schedule Name,Zone Name, Zone Floor Area {m2}, # Zone Occupants,Design Volume Flow Rate {m3/s},Volume Flow Rate/Floor Area {m3/s/m2},Volume Flow Rate/Exterior Surface Area {m3/s/m2},ACH - Air Changes per Hour,Equation A - Constant Term Coefficient {},Equation B - Temperature Term Coefficient {1/C},Equation C - Velocity Term Coefficient {s/m}, Equation D - Velocity Squared Term Coefficient {s2/m2}
 ZoneInfiltration Airflow Stats Nominal, GROUNDFLOOR_PLENUM INFILTRATION,ALWAYS ON DISCRETE,GROUNDFLOOR_PLENUM ZN,3563.11,0.0,0.169,4.749E-005,5.696E-004,0.140,0.000,0.000,0.224,0.000
 ZoneInfiltration Airflow Stats Nominal, MIDFLOOR_PLENUM INFILTRATION,ALWAYS ON DISCRETE,MIDFLOOR_PLENUM ZN,3563.11,0.0,0.169,4.749E-005,5.696E-004,0.140,0.000,0.000,0.224,0.000
 ZoneInfiltration Airflow Stats Nominal, PERIMETER_BOT_ZN_1 INFILTRATION,OFFICELARGE INFIL_SCH_PNNL,PERIMETER_BOT_ZN_1 ZN,313.42,16.9,0.114,3.646E-004,5.696E-004,0.478,0.000,0.000,0.224,0.000
 ZoneInfiltration Airflow Stats Nominal, PERIMETER_BOT_ZN_2 INFILTRATION,OFFICELARGE INFIL_SCH_PNNL,PERIMETER_BOT_ZN_2 ZN,201.98,10.9,7.617E-002,3.771E-004,5.696E-004,0.495,0.000,0.000,0.224,0.000
 ZoneInfiltration Airflow Stats Nominal, PERIMETER_BOT_ZN_3 INFILTRATION,OFFICELARGE INFIL_SCH_PNNL,PERIMETER_BOT_ZN_3 ZN,313.41,16.9,0.114,3.646E-004,5.696E-004,0.478,0.000,0.000,0.224,0.000
 ZoneInfiltration Airflow Stats Nominal, PERIMETER_BOT_ZN_4 INFILTRATION,OFFICELARGE INFIL_SCH_PNNL,PERIMETER_BOT_ZN_4 ZN,201.98,10.9,7.617E-002,3.771E-004,5.696E-004,0.495,0.000,0.000,0.224,0.000
 ZoneInfiltration Airflow Stats Nominal, PERIMETER_MID_ZN_1 INFILTRATION,OFFICELARGE INFIL_SCH_PNNL,PERIMETER_MID_ZN_1 ZN,313.42,16.9,0.114,3.646E-004,5.696E-004,0.478,0.000,0.000,0.224,0.000
 ZoneInfiltration Airflow Stats Nominal, PERIMETER_MID_ZN_2 INFILTRATION,OFFICELARGE INFIL_SCH_PNNL,PERIMETER_MID_ZN_2 ZN,201.98,10.9,7.617E-002,3.771E-004,5.696E-004,0.495,0.000,0.000,0.224,0.000
 ZoneInfiltration Airflow Stats Nominal, PERIMETER_MID_ZN_3 INFILTRATION,OFFICELARGE INFIL_SCH_PNNL,PERIMETER_MID_ZN_3 ZN,313.41,16.9,0.114,3.646E-004,5.696E-004,0.478,0.000,0.000,0.224,0.000
 ZoneInfiltration Airflow Stats Nominal, PERIMETER_MID_ZN_4 INFILTRATION,OFFICELARGE INFIL_SCH_PNNL,PERIMETER_MID_ZN_4 ZN,201.98,10.9,7.617E-002,3.771E-004,5.696E-004,0.495,0.000,0.000,0.224,0.000
 ZoneInfiltration Airflow Stats Nominal, PERIMETER_TOP_ZN_1 INFILTRATION,OFFICELARGE INFIL_SCH_PNNL,PERIMETER_TOP_ZN_1 ZN,313.42,16.9,0.114,3.646E-004,5.696E-004,0.478,0.000,0.000,0.224,0.000
 ZoneInfiltration Airflow Stats Nominal, PERIMETER_TOP_ZN_2 INFILTRATION,OFFICELARGE INFIL_SCH_PNNL,PERIMETER_TOP_ZN_2 ZN,201.98,10.9,7.617E-002,3.771E-004,5.696E-004,0.495,0.000,0.000,0.224,0.000
 ZoneInfiltration Airflow Stats Nominal, PERIMETER_TOP_ZN_3 INFILTRATION,OFFICELARGE INFIL_SCH_PNNL,PERIMETER_TOP_ZN_3 ZN,313.41,16.9,0.114,3.646E-004,5.696E-004,0.478,0.000,0.000,0.224,0.000
 ZoneInfiltration Airflow Stats Nominal, PERIMETER_TOP_ZN_4 INFILTRATION,OFFICELARGE INFIL_SCH_PNNL,PERIMETER_TOP_ZN_4 ZN,201.98,10.9,7.617E-002,3.771E-004,5.696E-004,0.495,0.000,0.000,0.224,0.000
 ZoneInfiltration Airflow Stats Nominal, TOPFLOOR_PLENUM INFILTRATION,ALWAYS ON DISCRETE,TOPFLOOR_PLENUM ZN,3563.11,0.0,0.169,4.749E-005,4.384E-005,0.140,0.000,0.000,0.224,0.000
! <AirFlow Model>, Simple
 AirFlow Model, Simple
! <RoomAir Model>, Zone Name, Mixing/Mundt/UCSDDV/UCSDCV/UCSDUFI/UCSDUFE/User Defined
RoomAir Model,BASEMENT ZN,Mixing/Well-Stirred
RoomAir Model,CORE_BOTTOM ZN,Mixing/Well-Stirred
RoomAir Model,CORE_MID ZN,Mixing/Well-Stirred
RoomAir Model,CORE_TOP ZN,Mixing/Well-Stirred
RoomAir Model,DATACENTER_BASEMENT_ZN_6 ZN,Mixing/Well-Stirred
RoomAir Model,DATACENTER_BOT_ZN_6 ZN,Mixing/Well-Stirred
RoomAir Model,DATACENTER_MID_ZN_6 ZN,Mixing/Well-Stirred
RoomAir Model,DATACENTER_TOP_ZN_6 ZN,Mixing/Well-Stirred
RoomAir Model,GROUNDFLOOR_PLENUM ZN,Mixing/Well-Stirred
RoomAir Model,MIDFLOOR_PLENUM ZN,Mixing/Well-Stirred
RoomAir Model,PERIMETER_BOT_ZN_1 ZN,Mixing/Well-Stirred
RoomAir Model,PERIMETER_BOT_ZN_2 ZN,Mixing/Well-Stirred
RoomAir Model,PERIMETER_BOT_ZN_3 ZN,Mixing/Well-Stirred
RoomAir Model,PERIMETER_BOT_ZN_4 ZN,Mixing/Well-Stirred
RoomAir Model,PERIMETER_MID_ZN_1 ZN,Mixing/Well-Stirred
RoomAir Model,PERIMETER_MID_ZN_2 ZN,Mixing/Well-Stirred
RoomAir Model,PERIMETER_MID_ZN_3 ZN,Mixing/Well-Stirred
RoomAir Model,PERIMETER_MID_ZN_4 ZN,Mixing/Well-Stirred
RoomAir Model,PERIMETER_TOP_ZN_1 ZN,Mixing/Well-Stirred
RoomAir Model,PERIMETER_TOP_ZN_2 ZN,Mixing/Well-Stirred
RoomAir Model,PERIMETER_TOP_ZN_3 ZN,Mixing/Well-Stirred
RoomAir Model,PERIMETER_TOP_ZN_4 ZN,Mixing/Well-Stirred
RoomAir Model,TOPFLOOR_PLENUM ZN,Mixing/Well-Stirred
! <AirflowNetwork Model:Control>, No Multizone or Distribution/Multizone with Distribution/Multizone without Distribution/Multizone with Distribution only during Fan Operation
AirflowNetwork Model:Control,NoMultizoneOrDistribution
! <Zone Volume Capacitance Multiplier>, Sensible Heat Capacity Multiplier, Moisture Capacity Multiplier, Carbon Dioxide Capacity Multiplier, Generic Contaminant Capacity Multiplier
Zone Volume Capacitance Multiplier,   1.000 ,   1.000,   1.000,   1.000
! <Load Timesteps in Zone Design Calculation Averaging Window>, Value
 Load Timesteps in Zone Design Calculation Averaging Window,   12
! <Heating Sizing Factor Information>, Sizing Factor ID, Value
 Heating Sizing Factor Information, Global,   1.5000    
 Heating Sizing Factor Information, Zone BASEMENT ZN,   1.5000    
 Heating Sizing Factor Information, Zone CORE_BOTTOM ZN,   1.5000    
 Heating Sizing Factor Information, Zone CORE_MID ZN,   1.5000    
 Heating Sizing Factor Information, Zone CORE_TOP ZN,   1.5000    
 Heating Sizing Factor Information, Zone DATACENTER_BASEMENT_ZN_6 ZN,   1.5000    
 Heating Sizing Factor Information, Zone DATACENTER_BOT_ZN_6 ZN,   1.5000    
 Heating Sizing Factor Information, Zone DATACENTER_MID_ZN_6 ZN,   1.5000    
 Heating Sizing Factor Information, Zone DATACENTER_TOP_ZN_6 ZN,   1.5000    
 Heating Sizing Factor Information, Zone PERIMETER_BOT_ZN_1 ZN,   1.5000    
 Heating Sizing Factor Information, Zone PERIMETER_BOT_ZN_2 ZN,   1.5000    
 Heating Sizing Factor Information, Zone PERIMETER_BOT_ZN_3 ZN,   1.5000    
 Heating Sizing Factor Information, Zone PERIMETER_BOT_ZN_4 ZN,   1.5000    
 Heating Sizing Factor Information, Zone PERIMETER_MID_ZN_1 ZN,   1.5000    
 Heating Sizing Factor Information, Zone PERIMETER_MID_ZN_2 ZN,   1.5000    
 Heating Sizing Factor Information, Zone PERIMETER_MID_ZN_3 ZN,   1.5000    
 Heating Sizing Factor Information, Zone PERIMETER_MID_ZN_4 ZN,   1.5000    
 Heating Sizing Factor Information, Zone PERIMETER_TOP_ZN_1 ZN,   1.5000    
 Heating Sizing Factor Information, Zone PERIMETER_TOP_ZN_2 ZN,   1.5000    
 Heating Sizing Factor Information, Zone PERIMETER_TOP_ZN_3 ZN,   1.5000    
 Heating Sizing Factor Information, Zone PERIMETER_TOP_ZN_4 ZN,   1.5000    
! <Cooling Sizing Factor Information>, Sizing Factor ID, Value
 Cooling Sizing Factor Information, Global,   1.2000    
 Cooling Sizing Factor Information, Zone BASEMENT ZN,   1.2000    
 Cooling Sizing Factor Information, Zone CORE_BOTTOM ZN,   1.2000    
 Cooling Sizing Factor Information, Zone CORE_MID ZN,   1.2000    
 Cooling Sizing Factor Information, Zone CORE_TOP ZN,   1.2000    
 Cooling Sizing Factor Information, Zone DATACENTER_BASEMENT_ZN_6 ZN,   1.2000    
 Cooling Sizing Factor Information, Zone DATACENTER_BOT_ZN_6 ZN,   1.2000    
 Cooling Sizing Factor Information, Zone DATACENTER_MID_ZN_6 ZN,   1.2000    
 Cooling Sizing Factor Information, Zone DATACENTER_TOP_ZN_6 ZN,   1.2000    
 Cooling Sizing Factor Information, Zone PERIMETER_BOT_ZN_1 ZN,   1.2000    
 Cooling Sizing Factor Information, Zone PERIMETER_BOT_ZN_2 ZN,   1.2000    
 Cooling Sizing Factor Information, Zone PERIMETER_BOT_ZN_3 ZN,   1.2000    
 Cooling Sizing Factor Information, Zone PERIMETER_BOT_ZN_4 ZN,   1.2000    
 Cooling Sizing Factor Information, Zone PERIMETER_MID_ZN_1 ZN,   1.2000    
 Cooling Sizing Factor Information, Zone PERIMETER_MID_ZN_2 ZN,   1.2000    
 Cooling Sizing Factor Information, Zone PERIMETER_MID_ZN_3 ZN,   1.2000    
 Cooling Sizing Factor Information, Zone PERIMETER_MID_ZN_4 ZN,   1.2000    
 Cooling Sizing Factor Information, Zone PERIMETER_TOP_ZN_1 ZN,   1.2000    
 Cooling Sizing Factor Information, Zone PERIMETER_TOP_ZN_2 ZN,   1.2000    
 Cooling Sizing Factor Information, Zone PERIMETER_TOP_ZN_3 ZN,   1.2000    
 Cooling Sizing Factor Information, Zone PERIMETER_TOP_ZN_4 ZN,   1.2000    
! <Sky Daylight Factors>, MonthAndDay, Zone Name, Window Name, Daylight Fac: Ref Pt #1, Daylight Fac: Ref Pt #2
 Clear Sky Daylight Factors,07/21,PERIMETER_BOT_ZN_1 ZN,PERIMETER_BOT_ZN_1_WALL_SOUTH_WINDOW,3.4104E-002,0.0000
 Clear Turbid Sky Daylight Factors,07/21,PERIMETER_BOT_ZN_1 ZN,PERIMETER_BOT_ZN_1_WALL_SOUTH_WINDOW,3.1343E-002,0.0000
 Intermediate Sky Daylight Factors,07/21,PERIMETER_BOT_ZN_1 ZN,PERIMETER_BOT_ZN_1_WALL_SOUTH_WINDOW,2.2122E-002,0.0000
 Overcast Sky Daylight Factors,07/21,PERIMETER_BOT_ZN_1 ZN,PERIMETER_BOT_ZN_1_WALL_SOUTH_WINDOW,2.2068E-002,0.0000
 Clear Sky Daylight Factors,07/21,PERIMETER_BOT_ZN_2 ZN,PERIMETER_BOT_ZN_2_WALL_EAST_WINDOW,2.7630E-002,0.0000
 Clear Turbid Sky Daylight Factors,07/21,PERIMETER_BOT_ZN_2 ZN,PERIMETER_BOT_ZN_2_WALL_EAST_WINDOW,2.4028E-002,0.0000
 Intermediate Sky Daylight Factors,07/21,PERIMETER_BOT_ZN_2 ZN,PERIMETER_BOT_ZN_2_WALL_EAST_WINDOW,1.6564E-002,0.0000
 Overcast Sky Daylight Factors,07/21,PERIMETER_BOT_ZN_2 ZN,PERIMETER_BOT_ZN_2_WALL_EAST_WINDOW,2.2322E-002,0.0000
 Clear Sky Daylight Factors,07/21,PERIMETER_BOT_ZN_3 ZN,PERIMETER_BOT_ZN_3_WALL_NORTH_WINDOW,2.2330E-002,0.0000
 Clear Turbid Sky Daylight Factors,07/21,PERIMETER_BOT_ZN_3 ZN,PERIMETER_BOT_ZN_3_WALL_NORTH_WINDOW,1.8191E-002,0.0000
 Intermediate Sky Daylight Factors,07/21,PERIMETER_BOT_ZN_3 ZN,PERIMETER_BOT_ZN_3_WALL_NORTH_WINDOW,1.0831E-002,0.0000
 Overcast Sky Daylight Factors,07/21,PERIMETER_BOT_ZN_3 ZN,PERIMETER_BOT_ZN_3_WALL_NORTH_WINDOW,2.2068E-002,0.0000
 Clear Sky Daylight Factors,07/21,PERIMETER_BOT_ZN_4 ZN,PERIMETER_BOT_ZN_4_WALL_WEST_WINDOW,2.5725E-002,0.0000
 Clear Turbid Sky Daylight Factors,07/21,PERIMETER_BOT_ZN_4 ZN,PERIMETER_BOT_ZN_4_WALL_WEST_WINDOW,2.1913E-002,0.0000
 Intermediate Sky Daylight Factors,07/21,PERIMETER_BOT_ZN_4 ZN,PERIMETER_BOT_ZN_4_WALL_WEST_WINDOW,1.4704E-002,0.0000
 Overcast Sky Daylight Factors,07/21,PERIMETER_BOT_ZN_4 ZN,PERIMETER_BOT_ZN_4_WALL_WEST_WINDOW,2.2322E-002,0.0000
 Clear Sky Daylight Factors,07/21,PERIMETER_MID_ZN_1 ZN,PERIMETER_MID_ZN_1_WALL_SOUTH_WINDOW,3.6581E-002,0.0000
 Clear Turbid Sky Daylight Factors,07/21,PERIMETER_MID_ZN_1 ZN,PERIMETER_MID_ZN_1_WALL_SOUTH_WINDOW,3.3705E-002,0.0000
 Intermediate Sky Daylight Factors,07/21,PERIMETER_MID_ZN_1 ZN,PERIMETER_MID_ZN_1_WALL_SOUTH_WINDOW,2.3948E-002,0.0000
 Overcast Sky Daylight Factors,07/21,PERIMETER_MID_ZN_1 ZN,PERIMETER_MID_ZN_1_WALL_SOUTH_WINDOW,2.3692E-002,0.0000
 Clear Sky Daylight Factors,07/21,PERIMETER_MID_ZN_2 ZN,PERIMETER_MID_ZN_2_WALL_EAST_WINDOW,2.9562E-002,0.0000
 Clear Turbid Sky Daylight Factors,07/21,PERIMETER_MID_ZN_2 ZN,PERIMETER_MID_ZN_2_WALL_EAST_WINDOW,2.5760E-002,0.0000
 Intermediate Sky Daylight Factors,07/21,PERIMETER_MID_ZN_2 ZN,PERIMETER_MID_ZN_2_WALL_EAST_WINDOW,1.7882E-002,0.0000
 Overcast Sky Daylight Factors,07/21,PERIMETER_MID_ZN_2 ZN,PERIMETER_MID_ZN_2_WALL_EAST_WINDOW,2.3953E-002,0.0000
 Clear Sky Daylight Factors,07/21,PERIMETER_MID_ZN_3 ZN,PERIMETER_MID_ZN_3_WALL_NORTH_WINDOW,2.3838E-002,0.0000
 Clear Turbid Sky Daylight Factors,07/21,PERIMETER_MID_ZN_3 ZN,PERIMETER_MID_ZN_3_WALL_NORTH_WINDOW,1.9438E-002,0.0000
 Intermediate Sky Daylight Factors,07/21,PERIMETER_MID_ZN_3 ZN,PERIMETER_MID_ZN_3_WALL_NORTH_WINDOW,1.1670E-002,0.0000
 Overcast Sky Daylight Factors,07/21,PERIMETER_MID_ZN_3 ZN,PERIMETER_MID_ZN_3_WALL_NORTH_WINDOW,2.3692E-002,0.0000
 Clear Sky Daylight Factors,07/21,PERIMETER_MID_ZN_4 ZN,PERIMETER_MID_ZN_4_WALL_WEST_WINDOW,2.7502E-002,0.0000
 Clear Turbid Sky Daylight Factors,07/21,PERIMETER_MID_ZN_4 ZN,PERIMETER_MID_ZN_4_WALL_WEST_WINDOW,2.3465E-002,0.0000
 Intermediate Sky Daylight Factors,07/21,PERIMETER_MID_ZN_4 ZN,PERIMETER_MID_ZN_4_WALL_WEST_WINDOW,1.5861E-002,0.0000
 Overcast Sky Daylight Factors,07/21,PERIMETER_MID_ZN_4 ZN,PERIMETER_MID_ZN_4_WALL_WEST_WINDOW,2.3953E-002,0.0000
 Clear Sky Daylight Factors,07/21,PERIMETER_TOP_ZN_1 ZN,PERIMETER_TOP_ZN_1_WALL_SOUTH_WINDOW,3.6581E-002,0.0000
 Clear Turbid Sky Daylight Factors,07/21,PERIMETER_TOP_ZN_1 ZN,PERIMETER_TOP_ZN_1_WALL_SOUTH_WINDOW,3.3705E-002,0.0000
 Intermediate Sky Daylight Factors,07/21,PERIMETER_TOP_ZN_1 ZN,PERIMETER_TOP_ZN_1_WALL_SOUTH_WINDOW,2.3948E-002,0.0000
 Overcast Sky Daylight Factors,07/21,PERIMETER_TOP_ZN_1 ZN,PERIMETER_TOP_ZN_1_WALL_SOUTH_WINDOW,2.3692E-002,0.0000
 Clear Sky Daylight Factors,07/21,PERIMETER_TOP_ZN_2 ZN,PERIMETER_TOP_ZN_2_WALL_EAST_WINDOW,2.9562E-002,0.0000
 Clear Turbid Sky Daylight Factors,07/21,PERIMETER_TOP_ZN_2 ZN,PERIMETER_TOP_ZN_2_WALL_EAST_WINDOW,2.5760E-002,0.0000
 Intermediate Sky Daylight Factors,07/21,PERIMETER_TOP_ZN_2 ZN,PERIMETER_TOP_ZN_2_WALL_EAST_WINDOW,1.7882E-002,0.0000
 Overcast Sky Daylight Factors,07/21,PERIMETER_TOP_ZN_2 ZN,PERIMETER_TOP_ZN_2_WALL_EAST_WINDOW,2.3953E-002,0.0000
 Clear Sky Daylight Factors,07/21,PERIMETER_TOP_ZN_3 ZN,PERIMETER_TOP_ZN_3_WALL_NORTH_WINDOW,2.3838E-002,0.0000
 Clear Turbid Sky Daylight Factors,07/21,PERIMETER_TOP_ZN_3 ZN,PERIMETER_TOP_ZN_3_WALL_NORTH_WINDOW,1.9438E-002,0.0000
 Intermediate Sky Daylight Factors,07/21,PERIMETER_TOP_ZN_3 ZN,PERIMETER_TOP_ZN_3_WALL_NORTH_WINDOW,1.1670E-002,0.0000
 Overcast Sky Daylight Factors,07/21,PERIMETER_TOP_ZN_3 ZN,PERIMETER_TOP_ZN_3_WALL_NORTH_WINDOW,2.3692E-002,0.0000
 Clear Sky Daylight Factors,07/21,PERIMETER_TOP_ZN_4 ZN,PERIMETER_TOP_ZN_4_WALL_WEST_WINDOW,2.7502E-002,0.0000
 Clear Turbid Sky Daylight Factors,07/21,PERIMETER_TOP_ZN_4 ZN,PERIMETER_TOP_ZN_4_WALL_WEST_WINDOW,2.3465E-002,0.0000
 Intermediate Sky Daylight Factors,07/21,PERIMETER_TOP_ZN_4 ZN,PERIMETER_TOP_ZN_4_WALL_WEST_WINDOW,1.5861E-002,0.0000
 Overcast Sky Daylight Factors,07/21,PERIMETER_TOP_ZN_4 ZN,PERIMETER_TOP_ZN_4_WALL_WEST_WINDOW,2.3953E-002,0.0000
! <Zone Sizing Information>, Zone Name, Load Type, Calc Des Load {W}, User Des Load {W}, Calc Des Air Flow Rate {m3/s}, User Des Air Flow Rate {m3/s}, Design Day Name, Date/Time of Peak, Temperature at Peak {C}, Humidity Ratio at Peak {kgWater/kgDryAir}, Floor Area {m2}, # Occupants, Calc Outdoor Air Flow Rate {m3/s}, Calc DOAS Heat Addition Rate {W}
 Zone Sizing Information, BASEMENT ZN, Cooling, 44998.09479, 53997.71375, 3.28640, 3.94368, BALTIMORE BLT WASHNGTN INTL ANN CLG .4% CONDNS DB=>MWB, 7/21 18:00:00, 31.90400, 1.44590E-002, 2779.42662, 149.58750, 1.20016, 0.00000
 Zone Sizing Information, BASEMENT ZN, Heating, 0.00000, 0.00000, 0.00000, 1.20016, BALTIMORE BLT WASHNGTN INTL ANN HTG 99.6% CONDNS DB, , -10.60000, 1.52428E-003, 2779.42662, 149.58750, 1.20016, 0.00000
 Zone Sizing Information, CORE_BOTTOM ZN, Cooling, 70202.54016, 84243.04819, 5.12712, 6.15255, BALTIMORE BLT WASHNGTN INTL ANN CLG .4% CONDNS DB=>MWB, 7/21 19:10:00, 30.15333, 1.44590E-002, 2496.12046, 134.34009, 1.07782, 0.00000
 Zone Sizing Information, CORE_BOTTOM ZN, Heating, 0.00000, 0.00000, 0.00000, 1.07782, BALTIMORE BLT WASHNGTN INTL ANN HTG 99.6% CONDNS DB, , -10.60000, 1.52428E-003, 2496.12046, 134.34009, 1.07782, 0.00000
 Zone Sizing Information, CORE_MID ZN, Cooling, 574799.05225, 689758.86270, 41.97953, 50.37544, BALTIMORE BLT WASHNGTN INTL ANN CLG .4% CONDNS DB=>MWB, 7/21 16:15:00, 33.56800, 1.44590E-002, 2496.12046, 134.34009, 10.77825, 0.00000
 Zone Sizing Information, CORE_MID ZN, Heating, 72083.83486, 108125.75229, 2.95060, 10.77825, BALTIMORE BLT WASHNGTN INTL ANN HTG 99.6% CONDNS DB, 1/21 24:00:00, -10.60000, 1.52428E-003, 2496.12046, 134.34009, 10.77825, 0.00000
 Zone Sizing Information, CORE_TOP ZN, Cooling, 69006.27579, 82807.53095, 5.03976, 6.04771, BALTIMORE BLT WASHNGTN INTL ANN CLG .4% CONDNS DB=>MWB, 7/21 19:05:00, 30.24867, 1.44590E-002, 2496.12046, 134.34009, 1.07782, 0.00000
 Zone Sizing Information, CORE_TOP ZN, Heating, 27387.87980, 41081.81970, 1.12107, 1.68160, BALTIMORE BLT WASHNGTN INTL ANN HTG 99.6% CONDNS DB, 1/21 24:00:00, -10.60000, 1.52428E-003, 2496.12046, 134.34009, 1.07782, 0.00000
 Zone Sizing Information, DATACENTER_BASEMENT_ZN_6 ZN, Cooling, 308997.88485, 370797.46182, 17.79814, 21.35776, BALTIMORE BLT WASHNGTN INTL ANN CLG .4% CONDNS DB=>MWB, 7/21 18:55:00, 30.47400, 1.44590E-002, 783.67941, 0.00000, 0.00000, 0.00000
 Zone Sizing Information, DATACENTER_BOT_ZN_6 ZN, Cooling, 7361.30105, 8833.56126, 0.42401, 0.50881, BALTIMORE BLT WASHNGTN INTL ANN CLG .4% CONDNS DB=>MWB, 7/21 18:50:00, 30.60400, 1.44590E-002, 36.20274, 0.00000, 0.00000, 0.00000
 Zone Sizing Information, DATACENTER_MID_ZN_6 ZN, Cooling, 64429.21807, 77315.06168, 3.71109, 4.45331, BALTIMORE BLT WASHNGTN INTL ANN CLG .4% CONDNS DB=>MWB, 7/21 18:50:00, 30.60400, 1.44590E-002, 36.20274, 0.00000, 0.00000, 0.00000
 Zone Sizing Information, DATACENTER_TOP_ZN_6 ZN, Cooling, 6677.85422, 8013.42506, 0.38464, 0.46157, BALTIMORE BLT WASHNGTN INTL ANN CLG .4% CONDNS DB=>MWB, 7/21 18:50:00, 30.60400, 1.44590E-002, 36.20274, 0.00000, 0.00000, 0.00000
 Zone Sizing Information, PERIMETER_BOT_ZN_1 ZN, Cooling, 18651.08699, 22381.30439, 1.36215, 1.63458, BALTIMORE BLT WASHNGTN INTL ANN CLG .4% CONDNS DB=>MWB, 7/21 13:20:00, 34.05333, 1.44590E-002, 313.41969, 16.86811, 0.13533, 0.00000
 Zone Sizing Information, PERIMETER_BOT_ZN_1 ZN, Heating, 4111.27271, 6166.90906, 0.16828, 0.25242, BALTIMORE BLT WASHNGTN INTL ANN HTG 99.6% CONDNS DB, 1/21 24:00:00, -10.60000, 1.52428E-003, 313.41969, 16.86811, 0.13533, 0.00000
 Zone Sizing Information, PERIMETER_BOT_ZN_2 ZN, Cooling, 15512.49843, 18614.99811, 1.13293, 1.35951, BALTIMORE BLT WASHNGTN INTL ANN CLG .4% CONDNS DB=>MWB, 7/21 09:20:00, 29.26933, 1.44590E-002, 201.97515, 10.87021, 8.72129E-002, 0.00000
 Zone Sizing Information, PERIMETER_BOT_ZN_2 ZN, Heating, 4116.98494, 6175.47742, 0.16851, 0.25277, BALTIMORE BLT WASHNGTN INTL ANN HTG 99.6% CONDNS DB, 1/21 24:00:00, -10.60000, 1.52428E-003, 201.97515, 10.87021, 8.72129E-002, 0.00000
 Zone Sizing Information, PERIMETER_BOT_ZN_3 ZN, Cooling, 13514.06384, 16216.87661, 0.98698, 1.18437, BALTIMORE BLT WASHNGTN INTL ANN CLG .4% CONDNS DB=>MWB, 7/21 15:10:00, 34.29600, 1.44590E-002, 313.41284, 16.86774, 0.13533, 0.00000
 Zone Sizing Information, PERIMETER_BOT_ZN_3 ZN, Heating, 4062.98739, 6094.48108, 0.16630, 0.24946, BALTIMORE BLT WASHNGTN INTL ANN HTG 99.6% CONDNS DB, 1/21 24:00:00, -10.60000, 1.52428E-003, 313.41284, 16.86774, 0.13533, 0.00000
 Zone Sizing Information, PERIMETER_BOT_ZN_4 ZN, Cooling, 24197.93303, 29037.51964, 1.76725, 2.12070, BALTIMORE BLT WASHNGTN INTL ANN CLG .4% CONDNS DB=>MWB, 7/21 16:50:00, 33.08267, 1.44590E-002, 201.97515, 10.87021, 8.72129E-002, 0.00000
 Zone Sizing Information, PERIMETER_BOT_ZN_4 ZN, Heating, 0.00000, 0.00000, 0.00000, 8.72129E-002, BALTIMORE BLT WASHNGTN INTL ANN HTG 99.6% CONDNS DB, , -10.60000, 1.52428E-003, 201.97515, 10.87021, 8.72129E-002, 0.00000
 Zone Sizing Information, PERIMETER_MID_ZN_1 ZN, Cooling, 177721.50256, 213265.80307, 12.97976, 15.57571, BALTIMORE BLT WASHNGTN INTL ANN CLG .4% CONDNS DB=>MWB, 7/21 13:20:00, 34.05333, 1.44590E-002, 313.41969, 16.86811, 1.35335, 0.00000
 Zone Sizing Information, PERIMETER_MID_ZN_1 ZN, Heating, 109597.47709, 164396.21564, 4.48575, 6.72863, BALTIMORE BLT WASHNGTN INTL ANN HTG 99.6% CONDNS DB, 1/21 24:00:00, -10.60000, 1.52428E-003, 313.41969, 16.86811, 1.35335, 0.00000
 Zone Sizing Information, PERIMETER_MID_ZN_2 ZN, Cooling, 174319.60158, 209183.52189, 12.73128, 15.27753, BALTIMORE BLT WASHNGTN INTL ANN CLG .4% CONDNS DB=>MWB, 7/21 09:20:00, 29.26933, 1.44590E-002, 201.97515, 10.87021, 0.87213, 0.00000
 Zone Sizing Information, PERIMETER_MID_ZN_2 ZN, Heating, 73372.83232, 110059.24847, 3.00309, 4.50464, BALTIMORE BLT WASHNGTN INTL ANN HTG 99.6% CONDNS DB, 1/21 24:00:00, -10.60000, 1.52428E-003, 201.97515, 10.87021, 0.87213, 0.00000
 Zone Sizing Information, PERIMETER_MID_ZN_3 ZN, Cooling, 119834.13160, 143800.95792, 8.75202, 10.50242, BALTIMORE BLT WASHNGTN INTL ANN CLG .4% CONDNS DB=>MWB, 7/21 15:10:00, 34.29600, 1.44590E-002, 313.41284, 16.86774, 1.35332, 0.00000
 Zone Sizing Information, PERIMETER_MID_ZN_3 ZN, Heating, 110897.34525, 166346.01787, 4.53896, 6.80843, BALTIMORE BLT WASHNGTN INTL ANN HTG 99.6% CONDNS DB, 1/21 24:00:00, -10.60000, 1.52428E-003, 313.41284, 16.86774, 1.35332, 0.00000
 Zone Sizing Information, PERIMETER_MID_ZN_4 ZN, Cooling, 197635.60117, 237162.72140, 14.43412, 17.32094, BALTIMORE BLT WASHNGTN INTL ANN CLG .4% CONDNS DB=>MWB, 7/21 16:50:00, 33.08267, 1.44590E-002, 201.97515, 10.87021, 0.87213, 0.00000
 Zone Sizing Information, PERIMETER_MID_ZN_4 ZN, Heating, 59727.07232, 89590.60847, 2.44459, 3.66688, BALTIMORE BLT WASHNGTN INTL ANN HTG 99.6% CONDNS DB, 1/21 24:00:00, -10.60000, 1.52428E-003, 201.97515, 10.87021, 0.87213, 0.00000
 Zone Sizing Information, PERIMETER_TOP_ZN_1 ZN, Cooling, 18626.52738, 22351.83285, 1.36038, 1.63246, BALTIMORE BLT WASHNGTN INTL ANN CLG .4% CONDNS DB=>MWB, 7/21 13:25:00, 34.09667, 1.44590E-002, 313.41969, 16.86811, 0.13533, 0.00000
 Zone Sizing Information, PERIMETER_TOP_ZN_1 ZN, Heating, 14367.58018, 21551.37027, 0.58804, 0.88206, BALTIMORE BLT WASHNGTN INTL ANN HTG 99.6% CONDNS DB, 1/21 06:00:00, -10.60000, 1.52428E-003, 313.41969, 16.86811, 0.13533, 0.00000
 Zone Sizing Information, PERIMETER_TOP_ZN_2 ZN, Cooling, 17638.44650, 21166.13581, 1.28822, 1.54586, BALTIMORE BLT WASHNGTN INTL ANN CLG .4% CONDNS DB=>MWB, 7/21 09:20:00, 29.26933, 1.44590E-002, 201.97515, 10.87021, 8.72129E-002, 0.00000
 Zone Sizing Information, PERIMETER_TOP_ZN_2 ZN, Heating, 9554.85691, 14332.28536, 0.39106, 0.58660, BALTIMORE BLT WASHNGTN INTL ANN HTG 99.6% CONDNS DB, 1/21 06:00:00, -10.60000, 1.52428E-003, 201.97515, 10.87021, 8.72129E-002, 0.00000
 Zone Sizing Information, PERIMETER_TOP_ZN_3 ZN, Cooling, 13199.66503, 15839.59804, 0.96404, 1.15684, BALTIMORE BLT WASHNGTN INTL ANN CLG .4% CONDNS DB=>MWB, 7/21 15:35:00, 34.03600, 1.44590E-002, 313.41284, 16.86774, 0.13533, 0.00000
 Zone Sizing Information, PERIMETER_TOP_ZN_3 ZN, Heating, 14538.27327, 21807.40991, 0.59503, 0.89254, BALTIMORE BLT WASHNGTN INTL ANN HTG 99.6% CONDNS DB, 1/21 06:00:00, -10.60000, 1.52428E-003, 313.41284, 16.86774, 0.13533, 0.00000
 Zone Sizing Information, PERIMETER_TOP_ZN_4 ZN, Cooling, 20652.94739, 24783.53687, 1.50838, 1.81005, BALTIMORE BLT WASHNGTN INTL ANN CLG .4% CONDNS DB=>MWB, 7/21 16:50:00, 33.08267, 1.44590E-002, 201.97515, 10.87021, 8.72129E-002, 0.00000
 Zone Sizing Information, PERIMETER_TOP_ZN_4 ZN, Heating, 8113.52305, 12170.28458, 0.33207, 0.49811, BALTIMORE BLT WASHNGTN INTL ANN HTG 99.6% CONDNS DB, 1/21 06:00:00, -10.60000, 1.52428E-003, 201.97515, 10.87021, 8.72129E-002, 0.00000
! <System Sizing Information>, System Name, Load Type, Peak Load Kind, User Design Capacity, Calc Des Air Flow Rate [m3/s], User Des Air Flow Rate [m3/s], Design Day Name, Date/Time of Peak
 System Sizing Information, CAV_BAS, Cooling, Sensible, 68092.17, 3.94368, 3.94368, BALTIMORE BLT WASHNGTN INTL ANN CLG .4% CONDNS DB=>MWB, 7/21 00:00:00
 System Sizing Information, CAV_BAS, Heating, Sensible, 39438.92, 1.20016, 1.20016, BALTIMORE BLT WASHNGTN INTL ANN HTG 99.6% CONDNS DB, 1/21 00:05:00
 System Sizing Information, DATACENTER_BASEMENT_ZN_6 ZN PSZ-AC DATA CENTER, Cooling, Sensible, 365063.71, 21.35776, 21.35776, BALTIMORE BLT WASHNGTN INTL ANN CLG .4% CONDNS DB=>MWB, 7/21 00:00:00
 System Sizing Information, DATACENTER_BASEMENT_ZN_6 ZN PSZ-AC DATA CENTER, Heating, Sensible, 0.00, 0.00000, 0.00000, ,  00:00:00
 System Sizing Information, DATACENTER_BOT_ZN_6 ZN PSZ-AC DATA CENTER, Cooling, Sensible, 8696.97, 0.50881, 0.50881, BALTIMORE BLT WASHNGTN INTL ANN CLG .4% CONDNS DB=>MWB, 7/21 00:00:00
 System Sizing Information, DATACENTER_BOT_ZN_6 ZN PSZ-AC DATA CENTER, Heating, Sensible, 0.00, 0.00000, 0.00000, ,  00:00:00
 System Sizing Information, DATACENTER_MID_ZN_6 ZN PSZ-AC DATA CENTER, Cooling, Sensible, 76119.52, 4.45331, 4.45331, BALTIMORE BLT WASHNGTN INTL ANN CLG .4% CONDNS DB=>MWB, 7/21 00:00:00
 System Sizing Information, DATACENTER_MID_ZN_6 ZN PSZ-AC DATA CENTER, Heating, Sensible, 0.00, 0.00000, 0.00000, ,  00:00:00
 System Sizing Information, DATACENTER_TOP_ZN_6 ZN PSZ-AC DATA CENTER, Cooling, Sensible, 7889.51, 0.46157, 0.46157, BALTIMORE BLT WASHNGTN INTL ANN CLG .4% CONDNS DB=>MWB, 7/21 00:00:00
 System Sizing Information, DATACENTER_TOP_ZN_6 ZN PSZ-AC DATA CENTER, Heating, Sensible, 0.00, 0.00000, 0.00000, ,  00:00:00
 System Sizing Information, VAV_BOT WITH REHEAT, Cooling, Sensible, 186840.09, 11.55034, 11.55034, BALTIMORE BLT WASHNGTN INTL ANN CLG .4% CONDNS DB=>MWB, 7/21 00:00:00
 System Sizing Information, VAV_BOT WITH REHEAT, Heating, Sensible, 54071.70, 1.91968, 1.91968, BALTIMORE BLT WASHNGTN INTL ANN HTG 99.6% CONDNS DB, 1/21 24:00:00
 System Sizing Information, VAV_MID WITH REHEAT, Cooling, Sensible, 1341340.56, 98.03452, 98.03452, BALTIMORE BLT WASHNGTN INTL ANN CLG .4% CONDNS DB=>MWB, 7/21 05:00:00
 System Sizing Information, VAV_MID WITH REHEAT, Heating, Sensible, 186850.99, 15.22917, 15.22917, BALTIMORE BLT WASHNGTN INTL ANN CLG .4% CONDNS DB=>MWB, 7/21 05:00:00
 System Sizing Information, VAV_TOP WITH REHEAT, Cooling, Sensible, 178748.02, 11.05001, 11.05001, BALTIMORE BLT WASHNGTN INTL ANN CLG .4% CONDNS DB=>MWB, 7/21 00:00:00
 System Sizing Information, VAV_TOP WITH REHEAT, Heating, Sensible, 58221.63, 4.54090, 4.54090, BALTIMORE BLT WASHNGTN INTL ANN HTG 99.6% CONDNS DB, 1/21 18:00:00
! <Component Sizing Information>, Component Type, Component Name, Input Field Description, Value
 Component Sizing Information, AirTerminal:SingleDuct:VAV:Reheat, BASEMENT ZN VAV TERM, Design Size Maximum Air Flow Rate [m3/s], 3.94368
 Component Sizing Information, AirTerminal:SingleDuct:VAV:Reheat, BASEMENT ZN VAV TERM, Design Size Constant Minimum Air Flow Fraction, 0.53704
 Component Sizing Information, AirTerminal:SingleDuct:VAV:Reheat, BASEMENT ZN VAV TERM, User-Specified Constant Minimum Air Flow Fraction, 0.20000
 Component Sizing Information, AirTerminal:SingleDuct:VAV:Reheat, BASEMENT ZN VAV TERM, Design Size Minimum Air Flow Rate [m3/s], 0.78874
 Component Sizing Information, AirTerminal:SingleDuct:VAV:Reheat, BASEMENT ZN VAV TERM, Design Size Maximum Flow per Zone Floor Area during Reheat [m3/s-m2], 1.41888E-003
 Component Sizing Information, AirTerminal:SingleDuct:VAV:Reheat, BASEMENT ZN VAV TERM, Design Size Maximum Flow Fraction during Reheat [], 1.00000
 Component Sizing Information, AirTerminal:SingleDuct:VAV:Reheat, BASEMENT ZN VAV TERM, Design Size Maximum Reheat Water Flow Rate [m3/s], 6.95421E-005
 Component Sizing Information, AirTerminal:SingleDuct:VAV:Reheat, BASEMENT ZN VAV TERM, Design Size Reheat Coil Sizing Air Volume Flow Rate [m3/s], 0.78874
 Component Sizing Information, AirTerminal:SingleDuct:VAV:Reheat, BASEMENT ZN VAV TERM, Design Size Reheat Coil Sizing Inlet Air Temperature [C], 16.70000
 Component Sizing Information, AirTerminal:SingleDuct:VAV:Reheat, BASEMENT ZN VAV TERM, Design Size Reheat Coil Sizing Inlet Air Humidity Ratio [kgWater/kgDryAir], 8.00000E-003
 Component Sizing Information, Coil:Heating:Water, BASEMENT ZN RHT COIL, Design Size Rated Capacity [W], 3233.37782
 Component Sizing Information, Coil:Heating:Water, BASEMENT ZN RHT COIL, Design Size Maximum Water Flow Rate [m3/s], 6.95421E-005
 Component Sizing Information, Coil:Heating:Water, BASEMENT ZN RHT COIL, Design Size U-Factor Times Area Value [W/K], 55.37646
! <Water Heating Coil Capacity Information>,Component Type,Name,Nominal Total Capacity {W}
Water Heating Coil Capacity Information,Coil:Heating:Water,BASEMENT ZN RHT COIL,3187.08
 Component Sizing Information, AirTerminal:SingleDuct:VAV:Reheat, CORE_BOTTOM ZN VAV TERM, Design Size Maximum Air Flow Rate [m3/s], 6.15255
 Component Sizing Information, AirTerminal:SingleDuct:VAV:Reheat, CORE_BOTTOM ZN VAV TERM, Design Size Constant Minimum Air Flow Fraction, 0.30915
 Component Sizing Information, AirTerminal:SingleDuct:VAV:Reheat, CORE_BOTTOM ZN VAV TERM, User-Specified Constant Minimum Air Flow Fraction, 0.30284
 Component Sizing Information, AirTerminal:SingleDuct:VAV:Reheat, CORE_BOTTOM ZN VAV TERM, Design Size Minimum Air Flow Rate [m3/s], 1.86327
 Component Sizing Information, AirTerminal:SingleDuct:VAV:Reheat, CORE_BOTTOM ZN VAV TERM, Design Size Maximum Flow per Zone Floor Area during Reheat [m3/s-m2], 2.46484E-003
 Component Sizing Information, AirTerminal:SingleDuct:VAV:Reheat, CORE_BOTTOM ZN VAV TERM, Design Size Maximum Flow Fraction during Reheat [], 1.00000
 Component Sizing Information, AirTerminal:SingleDuct:VAV:Reheat, CORE_BOTTOM ZN VAV TERM, Design Size Maximum Reheat Water Flow Rate [m3/s], 3.58435E-004
 Component Sizing Information, AirTerminal:SingleDuct:VAV:Reheat, CORE_BOTTOM ZN VAV TERM, Design Size Reheat Coil Sizing Air Volume Flow Rate [m3/s], 1.86327
 Component Sizing Information, AirTerminal:SingleDuct:VAV:Reheat, CORE_BOTTOM ZN VAV TERM, Design Size Reheat Coil Sizing Inlet Air Temperature [C], 12.80000
 Component Sizing Information, AirTerminal:SingleDuct:VAV:Reheat, CORE_BOTTOM ZN VAV TERM, Design Size Reheat Coil Sizing Inlet Air Humidity Ratio [kgWater/kgDryAir], 8.00000E-003
 Component Sizing Information, Coil:Heating:Water, CORE_BOTTOM ZN RHT COIL, Design Size Rated Capacity [W], 16665.51487
 Component Sizing Information, Coil:Heating:Water, CORE_BOTTOM ZN RHT COIL, Design Size Maximum Water Flow Rate [m3/s], 3.58435E-004
 Component Sizing Information, Coil:Heating:Water, CORE_BOTTOM ZN RHT COIL, Design Size U-Factor Times Area Value [W/K], 280.69465
Water Heating Coil Capacity Information,Coil:Heating:Water,CORE_BOTTOM ZN RHT COIL,15498.21
 Component Sizing Information, AirTerminal:SingleDuct:VAV:Reheat, CORE_MID ZN VAV TERM, Design Size Maximum Air Flow Rate [m3/s], 50.37544
 Component Sizing Information, AirTerminal:SingleDuct:VAV:Reheat, CORE_MID ZN VAV TERM, Design Size Constant Minimum Air Flow Fraction, 0.37757
 Component Sizing Information, AirTerminal:SingleDuct:VAV:Reheat, CORE_MID ZN VAV TERM, User-Specified Constant Minimum Air Flow Fraction, 0.20000
 Component Sizing Information, AirTerminal:SingleDuct:VAV:Reheat, CORE_MID ZN VAV TERM, Design Size Minimum Air Flow Rate [m3/s], 10.07509
 Component Sizing Information, AirTerminal:SingleDuct:VAV:Reheat, CORE_MID ZN VAV TERM, Design Size Maximum Flow per Zone Floor Area during Reheat [m3/s-m2], 2.01815E-003
 Component Sizing Information, AirTerminal:SingleDuct:VAV:Reheat, CORE_MID ZN VAV TERM, Design Size Maximum Flow Fraction during Reheat [], 1.00000
 Component Sizing Information, AirTerminal:SingleDuct:VAV:Reheat, CORE_MID ZN VAV TERM, Design Size Maximum Reheat Water Flow Rate [m3/s], 4.30315E-003
 Component Sizing Information, AirTerminal:SingleDuct:VAV:Reheat, CORE_MID ZN VAV TERM, Design Size Reheat Coil Sizing Air Volume Flow Rate [m3/s], 10.07509
 Component Sizing Information, AirTerminal:SingleDuct:VAV:Reheat, CORE_MID ZN VAV TERM, Design Size Reheat Coil Sizing Inlet Air Temperature [C], 12.80000
 Component Sizing Information, AirTerminal:SingleDuct:VAV:Reheat, CORE_MID ZN VAV TERM, Design Size Reheat Coil Sizing Inlet Air Humidity Ratio [kgWater/kgDryAir], 8.00000E-003
 Component Sizing Information, Coil:Heating:Water, CORE_MID ZN RHT COIL, Design Size Rated Capacity [W], 200076.05178
 Component Sizing Information, Coil:Heating:Water, CORE_MID ZN RHT COIL, Design Size Maximum Water Flow Rate [m3/s], 4.30315E-003
 Component Sizing Information, Coil:Heating:Water, CORE_MID ZN RHT COIL, Design Size U-Factor Times Area Value [W/K], 3674.84833
Water Heating Coil Capacity Information,Coil:Heating:Water,CORE_MID ZN RHT COIL,186185.13
 Component Sizing Information, AirTerminal:SingleDuct:VAV:Reheat, CORE_TOP ZN VAV TERM, Design Size Maximum Air Flow Rate [m3/s], 6.04771
 Component Sizing Information, AirTerminal:SingleDuct:VAV:Reheat, CORE_TOP ZN VAV TERM, Design Size Constant Minimum Air Flow Fraction, 0.31451
 Component Sizing Information, AirTerminal:SingleDuct:VAV:Reheat, CORE_TOP ZN VAV TERM, User-Specified Constant Minimum Air Flow Fraction, 0.33529
 Component Sizing Information, AirTerminal:SingleDuct:VAV:Reheat, CORE_TOP ZN VAV TERM, Design Size Minimum Air Flow Rate [m3/s], 2.02775
 Component Sizing Information, AirTerminal:SingleDuct:VAV:Reheat, CORE_TOP ZN VAV TERM, Design Size Maximum Flow per Zone Floor Area during Reheat [m3/s-m2], 2.42284E-003
 Component Sizing Information, AirTerminal:SingleDuct:VAV:Reheat, CORE_TOP ZN VAV TERM, Design Size Maximum Flow Fraction during Reheat [], 1.00000
 Component Sizing Information, AirTerminal:SingleDuct:VAV:Reheat, CORE_TOP ZN VAV TERM, Design Size Maximum Reheat Water Flow Rate [m3/s], 1.28865E-003
 Component Sizing Information, AirTerminal:SingleDuct:VAV:Reheat, CORE_TOP ZN VAV TERM, Design Size Reheat Coil Sizing Air Volume Flow Rate [m3/s], 2.02775
 Component Sizing Information, AirTerminal:SingleDuct:VAV:Reheat, CORE_TOP ZN VAV TERM, Design Size Reheat Coil Sizing Inlet Air Temperature [C], 12.80000
 Component Sizing Information, AirTerminal:SingleDuct:VAV:Reheat, CORE_TOP ZN VAV TERM, Design Size Reheat Coil Sizing Inlet Air Humidity Ratio [kgWater/kgDryAir], 8.00000E-003
 Component Sizing Information, Coil:Heating:Water, CORE_TOP ZN RHT COIL, Design Size Rated Capacity [W], 59916.21230
 Component Sizing Information, Coil:Heating:Water, CORE_TOP ZN RHT COIL, Design Size Maximum Water Flow Rate [m3/s], 1.28865E-003
 Component Sizing Information, Coil:Heating:Water, CORE_TOP ZN RHT COIL, Design Size U-Factor Times Area Value [W/K], 1180.72396
Water Heating Coil Capacity Information,Coil:Heating:Water,CORE_TOP ZN RHT COIL,55732.28
 Component Sizing Information, AirTerminal:SingleDuct:Uncontrolled, DATACENTER_BASEMENT_ZN_6 ZN PSZ-AC DATA CENTER DIFFUSER, Design Size Maximum Air Flow Rate [m3/s], 21.35776
 Component Sizing Information, AirTerminal:SingleDuct:Uncontrolled, DATACENTER_BOT_ZN_6 ZN PSZ-AC DATA CENTER DIFFUSER, Design Size Maximum Air Flow Rate [m3/s], 0.50881
 Component Sizing Information, AirTerminal:SingleDuct:Uncontrolled, DATACENTER_MID_ZN_6 ZN PSZ-AC DATA CENTER DIFFUSER, Design Size Maximum Air Flow Rate [m3/s], 4.45331
 Component Sizing Information, AirTerminal:SingleDuct:Uncontrolled, DATACENTER_TOP_ZN_6 ZN PSZ-AC DATA CENTER DIFFUSER, Design Size Maximum Air Flow Rate [m3/s], 0.46157
 Component Sizing Information, AirTerminal:SingleDuct:VAV:Reheat, PERIMETER_BOT_ZN_1 ZN VAV TERM, Design Size Maximum Air Flow Rate [m3/s], 1.63458
 Component Sizing Information, AirTerminal:SingleDuct:VAV:Reheat, PERIMETER_BOT_ZN_1 ZN VAV TERM, Design Size Constant Minimum Air Flow Fraction, 0.14611
 Component Sizing Information, AirTerminal:SingleDuct:VAV:Reheat, PERIMETER_BOT_ZN_1 ZN VAV TERM, User-Specified Constant Minimum Air Flow Fraction, 0.20000
 Component Sizing Information, AirTerminal:SingleDuct:VAV:Reheat, PERIMETER_BOT_ZN_1 ZN VAV TERM, Design Size Minimum Air Flow Rate [m3/s], 0.32692
 Component Sizing Information, AirTerminal:SingleDuct:VAV:Reheat, PERIMETER_BOT_ZN_1 ZN VAV TERM, Design Size Maximum Flow per Zone Floor Area during Reheat [m3/s-m2], 5.21531E-003
 Component Sizing Information, AirTerminal:SingleDuct:VAV:Reheat, PERIMETER_BOT_ZN_1 ZN VAV TERM, Design Size Maximum Flow Fraction during Reheat [], 1.00000
 Component Sizing Information, AirTerminal:SingleDuct:VAV:Reheat, PERIMETER_BOT_ZN_1 ZN VAV TERM, Design Size Maximum Reheat Water Flow Rate [m3/s], 1.97671E-004
 Component Sizing Information, AirTerminal:SingleDuct:VAV:Reheat, PERIMETER_BOT_ZN_1 ZN VAV TERM, Design Size Reheat Coil Sizing Air Volume Flow Rate [m3/s], 0.32692
 Component Sizing Information, AirTerminal:SingleDuct:VAV:Reheat, PERIMETER_BOT_ZN_1 ZN VAV TERM, Design Size Reheat Coil Sizing Inlet Air Temperature [C], 12.80000
 Component Sizing Information, AirTerminal:SingleDuct:VAV:Reheat, PERIMETER_BOT_ZN_1 ZN VAV TERM, Design Size Reheat Coil Sizing Inlet Air Humidity Ratio [kgWater/kgDryAir], 8.00000E-003
 Component Sizing Information, Coil:Heating:Water, PERIMETER_BOT_ZN_1 ZN RHT COIL, Design Size Rated Capacity [W], 9190.77232
 Component Sizing Information, Coil:Heating:Water, PERIMETER_BOT_ZN_1 ZN RHT COIL, Design Size Maximum Water Flow Rate [m3/s], 1.97671E-004
 Component Sizing Information, Coil:Heating:Water, PERIMETER_BOT_ZN_1 ZN RHT COIL, Design Size U-Factor Times Area Value [W/K], 179.05766
Water Heating Coil Capacity Information,Coil:Heating:Water,PERIMETER_BOT_ZN_1 ZN RHT COIL,8549.36
 Component Sizing Information, AirTerminal:SingleDuct:VAV:Reheat, PERIMETER_BOT_ZN_2 ZN VAV TERM, Design Size Maximum Air Flow Rate [m3/s], 1.35951
 Component Sizing Information, AirTerminal:SingleDuct:VAV:Reheat, PERIMETER_BOT_ZN_2 ZN VAV TERM, Design Size Constant Minimum Air Flow Fraction, 0.11321
 Component Sizing Information, AirTerminal:SingleDuct:VAV:Reheat, PERIMETER_BOT_ZN_2 ZN VAV TERM, User-Specified Constant Minimum Air Flow Fraction, 0.20000
 Component Sizing Information, AirTerminal:SingleDuct:VAV:Reheat, PERIMETER_BOT_ZN_2 ZN VAV TERM, Design Size Minimum Air Flow Rate [m3/s], 0.27190
 Component Sizing Information, AirTerminal:SingleDuct:VAV:Reheat, PERIMETER_BOT_ZN_2 ZN VAV TERM, Design Size Maximum Flow per Zone Floor Area during Reheat [m3/s-m2], 6.73109E-003
 Component Sizing Information, AirTerminal:SingleDuct:VAV:Reheat, PERIMETER_BOT_ZN_2 ZN VAV TERM, Design Size Maximum Flow Fraction during Reheat [], 1.00000
 Component Sizing Information, AirTerminal:SingleDuct:VAV:Reheat, PERIMETER_BOT_ZN_2 ZN VAV TERM, Design Size Maximum Reheat Water Flow Rate [m3/s], 1.87318E-004
 Component Sizing Information, AirTerminal:SingleDuct:VAV:Reheat, PERIMETER_BOT_ZN_2 ZN VAV TERM, Design Size Reheat Coil Sizing Air Volume Flow Rate [m3/s], 0.27190
 Component Sizing Information, AirTerminal:SingleDuct:VAV:Reheat, PERIMETER_BOT_ZN_2 ZN VAV TERM, Design Size Reheat Coil Sizing Inlet Air Temperature [C], 12.80000
 Component Sizing Information, AirTerminal:SingleDuct:VAV:Reheat, PERIMETER_BOT_ZN_2 ZN VAV TERM, Design Size Reheat Coil Sizing Inlet Air Humidity Ratio [kgWater/kgDryAir], 8.00000E-003
 Component Sizing Information, Coil:Heating:Water, PERIMETER_BOT_ZN_2 ZN RHT COIL, Design Size Rated Capacity [W], 8709.37788
 Component Sizing Information, Coil:Heating:Water, PERIMETER_BOT_ZN_2 ZN RHT COIL, Design Size Maximum Water Flow Rate [m3/s], 1.87318E-004
 Component Sizing Information, Coil:Heating:Water, PERIMETER_BOT_ZN_2 ZN RHT COIL, Design Size U-Factor Times Area Value [W/K], 175.18124
Water Heating Coil Capacity Information,Coil:Heating:Water,PERIMETER_BOT_ZN_2 ZN RHT COIL,8099.95
 Component Sizing Information, AirTerminal:SingleDuct:VAV:Reheat, PERIMETER_BOT_ZN_3 ZN VAV TERM, Design Size Maximum Air Flow Rate [m3/s], 1.18437
 Component Sizing Information, AirTerminal:SingleDuct:VAV:Reheat, PERIMETER_BOT_ZN_3 ZN VAV TERM, Design Size Constant Minimum Air Flow Fraction, 0.20164
 Component Sizing Information, AirTerminal:SingleDuct:VAV:Reheat, PERIMETER_BOT_ZN_3 ZN VAV TERM, User-Specified Constant Minimum Air Flow Fraction, 0.21481
 Component Sizing Information, AirTerminal:SingleDuct:VAV:Reheat, PERIMETER_BOT_ZN_3 ZN VAV TERM, Design Size Minimum Air Flow Rate [m3/s], 0.25441
 Component Sizing Information, AirTerminal:SingleDuct:VAV:Reheat, PERIMETER_BOT_ZN_3 ZN VAV TERM, Design Size Maximum Flow per Zone Floor Area during Reheat [m3/s-m2], 3.77896E-003
 Component Sizing Information, AirTerminal:SingleDuct:VAV:Reheat, PERIMETER_BOT_ZN_3 ZN VAV TERM, Design Size Maximum Flow Fraction during Reheat [], 1.00000
 Component Sizing Information, AirTerminal:SingleDuct:VAV:Reheat, PERIMETER_BOT_ZN_3 ZN VAV TERM, Design Size Maximum Reheat Water Flow Rate [m3/s], 1.82162E-004
 Component Sizing Information, AirTerminal:SingleDuct:VAV:Reheat, PERIMETER_BOT_ZN_3 ZN VAV TERM, Design Size Reheat Coil Sizing Air Volume Flow Rate [m3/s], 0.25441
 Component Sizing Information, AirTerminal:SingleDuct:VAV:Reheat, PERIMETER_BOT_ZN_3 ZN VAV TERM, Design Size Reheat Coil Sizing Inlet Air Temperature [C], 12.80000
 Component Sizing Information, AirTerminal:SingleDuct:VAV:Reheat, PERIMETER_BOT_ZN_3 ZN VAV TERM, Design Size Reheat Coil Sizing Inlet Air Humidity Ratio [kgWater/kgDryAir], 8.00000E-003
 Component Sizing Information, Coil:Heating:Water, PERIMETER_BOT_ZN_3 ZN RHT COIL, Design Size Rated Capacity [W], 8469.66495
 Component Sizing Information, Coil:Heating:Water, PERIMETER_BOT_ZN_3 ZN RHT COIL, Design Size Maximum Water Flow Rate [m3/s], 1.82162E-004
 Component Sizing Information, Coil:Heating:Water, PERIMETER_BOT_ZN_3 ZN RHT COIL, Design Size U-Factor Times Area Value [W/K], 172.21823
Water Heating Coil Capacity Information,Coil:Heating:Water,PERIMETER_BOT_ZN_3 ZN RHT COIL,7876.68
 Component Sizing Information, AirTerminal:SingleDuct:VAV:Reheat, PERIMETER_BOT_ZN_4 ZN VAV TERM, Design Size Maximum Air Flow Rate [m3/s], 2.12070
 Component Sizing Information, AirTerminal:SingleDuct:VAV:Reheat, PERIMETER_BOT_ZN_4 ZN VAV TERM, Design Size Constant Minimum Air Flow Fraction, 7.25729E-002
 Component Sizing Information, AirTerminal:SingleDuct:VAV:Reheat, PERIMETER_BOT_ZN_4 ZN VAV TERM, User-Specified Constant Minimum Air Flow Fraction, 0.20000
 Component Sizing Information, AirTerminal:SingleDuct:VAV:Reheat, PERIMETER_BOT_ZN_4 ZN VAV TERM, Design Size Minimum Air Flow Rate [m3/s], 0.42414
 Component Sizing Information, AirTerminal:SingleDuct:VAV:Reheat, PERIMETER_BOT_ZN_4 ZN VAV TERM, Design Size Maximum Flow per Zone Floor Area during Reheat [m3/s-m2], 1.04998E-002
 Component Sizing Information, AirTerminal:SingleDuct:VAV:Reheat, PERIMETER_BOT_ZN_4 ZN VAV TERM, Design Size Maximum Flow Fraction during Reheat [], 1.00000
 Component Sizing Information, AirTerminal:SingleDuct:VAV:Reheat, PERIMETER_BOT_ZN_4 ZN VAV TERM, Design Size Maximum Reheat Water Flow Rate [m3/s], 8.15912E-005
 Component Sizing Information, AirTerminal:SingleDuct:VAV:Reheat, PERIMETER_BOT_ZN_4 ZN VAV TERM, Design Size Reheat Coil Sizing Air Volume Flow Rate [m3/s], 0.42414
 Component Sizing Information, AirTerminal:SingleDuct:VAV:Reheat, PERIMETER_BOT_ZN_4 ZN VAV TERM, Design Size Reheat Coil Sizing Inlet Air Temperature [C], 12.80000
 Component Sizing Information, AirTerminal:SingleDuct:VAV:Reheat, PERIMETER_BOT_ZN_4 ZN VAV TERM, Design Size Reheat Coil Sizing Inlet Air Humidity Ratio [kgWater/kgDryAir], 8.00000E-003
 Component Sizing Information, Coil:Heating:Water, PERIMETER_BOT_ZN_4 ZN RHT COIL, Design Size Rated Capacity [W], 3793.60268
 Component Sizing Information, Coil:Heating:Water, PERIMETER_BOT_ZN_4 ZN RHT COIL, Design Size Maximum Water Flow Rate [m3/s], 8.15912E-005
 Component Sizing Information, Coil:Heating:Water, PERIMETER_BOT_ZN_4 ZN RHT COIL, Design Size U-Factor Times Area Value [W/K], 63.89505
Water Heating Coil Capacity Information,Coil:Heating:Water,PERIMETER_BOT_ZN_4 ZN RHT COIL,3527.89
 Component Sizing Information, AirTerminal:SingleDuct:VAV:Reheat, PERIMETER_MID_ZN_1 ZN VAV TERM, Design Size Maximum Air Flow Rate [m3/s], 15.57571
 Component Sizing Information, AirTerminal:SingleDuct:VAV:Reheat, PERIMETER_MID_ZN_1 ZN VAV TERM, Design Size Constant Minimum Air Flow Fraction, 0.15333
 Component Sizing Information, AirTerminal:SingleDuct:VAV:Reheat, PERIMETER_MID_ZN_1 ZN VAV TERM, User-Specified Constant Minimum Air Flow Fraction, 0.20000
 Component Sizing Information, AirTerminal:SingleDuct:VAV:Reheat, PERIMETER_MID_ZN_1 ZN VAV TERM, Design Size Minimum Air Flow Rate [m3/s], 3.11514
 Component Sizing Information, AirTerminal:SingleDuct:VAV:Reheat, PERIMETER_MID_ZN_1 ZN VAV TERM, Design Size Maximum Flow per Zone Floor Area during Reheat [m3/s-m2], 4.96960E-003
 Component Sizing Information, AirTerminal:SingleDuct:VAV:Reheat, PERIMETER_MID_ZN_1 ZN VAV TERM, Design Size Maximum Flow Fraction during Reheat [], 1.00000
 Component Sizing Information, AirTerminal:SingleDuct:VAV:Reheat, PERIMETER_MID_ZN_1 ZN VAV TERM, Design Size Maximum Reheat Water Flow Rate [m3/s], 4.88797E-003
 Component Sizing Information, AirTerminal:SingleDuct:VAV:Reheat, PERIMETER_MID_ZN_1 ZN VAV TERM, Design Size Reheat Coil Sizing Air Volume Flow Rate [m3/s], 6.72863
 Component Sizing Information, AirTerminal:SingleDuct:VAV:Reheat, PERIMETER_MID_ZN_1 ZN VAV TERM, Design Size Reheat Coil Sizing Inlet Air Temperature [C], 12.80000
 Component Sizing Information, AirTerminal:SingleDuct:VAV:Reheat, PERIMETER_MID_ZN_1 ZN VAV TERM, Design Size Reheat Coil Sizing Inlet Air Humidity Ratio [kgWater/kgDryAir], 8.00000E-003
 Component Sizing Information, Coil:Heating:Water, PERIMETER_MID_ZN_1 ZN RHT COIL, Design Size Rated Capacity [W], 227267.38707
 Component Sizing Information, Coil:Heating:Water, PERIMETER_MID_ZN_1 ZN RHT COIL, Design Size Maximum Water Flow Rate [m3/s], 4.88797E-003
 Component Sizing Information, Coil:Heating:Water, PERIMETER_MID_ZN_1 ZN RHT COIL, Design Size U-Factor Times Area Value [W/K], 4640.85048
Water Heating Coil Capacity Information,Coil:Heating:Water,PERIMETER_MID_ZN_1 ZN RHT COIL,211352.82
 Component Sizing Information, AirTerminal:SingleDuct:VAV:Reheat, PERIMETER_MID_ZN_2 ZN VAV TERM, Design Size Maximum Air Flow Rate [m3/s], 15.27753
 Component Sizing Information, AirTerminal:SingleDuct:VAV:Reheat, PERIMETER_MID_ZN_2 ZN VAV TERM, Design Size Constant Minimum Air Flow Fraction, 0.10074
 Component Sizing Information, AirTerminal:SingleDuct:VAV:Reheat, PERIMETER_MID_ZN_2 ZN VAV TERM, User-Specified Constant Minimum Air Flow Fraction, 0.20000
 Component Sizing Information, AirTerminal:SingleDuct:VAV:Reheat, PERIMETER_MID_ZN_2 ZN VAV TERM, Design Size Minimum Air Flow Rate [m3/s], 3.05551
 Component Sizing Information, AirTerminal:SingleDuct:VAV:Reheat, PERIMETER_MID_ZN_2 ZN VAV TERM, Design Size Maximum Flow per Zone Floor Area during Reheat [m3/s-m2], 7.56407E-003
 Component Sizing Information, AirTerminal:SingleDuct:VAV:Reheat, PERIMETER_MID_ZN_2 ZN VAV TERM, Design Size Maximum Flow Fraction during Reheat [], 1.00000
 Component Sizing Information, AirTerminal:SingleDuct:VAV:Reheat, PERIMETER_MID_ZN_2 ZN VAV TERM, Design Size Maximum Reheat Water Flow Rate [m3/s], 3.27237E-003
 Component Sizing Information, AirTerminal:SingleDuct:VAV:Reheat, PERIMETER_MID_ZN_2 ZN VAV TERM, Design Size Reheat Coil Sizing Air Volume Flow Rate [m3/s], 4.50464
 Component Sizing Information, AirTerminal:SingleDuct:VAV:Reheat, PERIMETER_MID_ZN_2 ZN VAV TERM, Design Size Reheat Coil Sizing Inlet Air Temperature [C], 12.80000
 Component Sizing Information, AirTerminal:SingleDuct:VAV:Reheat, PERIMETER_MID_ZN_2 ZN VAV TERM, Design Size Reheat Coil Sizing Inlet Air Humidity Ratio [kgWater/kgDryAir], 8.00000E-003
 Component Sizing Information, Coil:Heating:Water, PERIMETER_MID_ZN_2 ZN RHT COIL, Design Size Rated Capacity [W], 152149.79574
 Component Sizing Information, Coil:Heating:Water, PERIMETER_MID_ZN_2 ZN RHT COIL, Design Size Maximum Water Flow Rate [m3/s], 3.27237E-003
 Component Sizing Information, Coil:Heating:Water, PERIMETER_MID_ZN_2 ZN RHT COIL, Design Size U-Factor Times Area Value [W/K], 3106.93392
Water Heating Coil Capacity Information,Coil:Heating:Water,PERIMETER_MID_ZN_2 ZN RHT COIL,141495.39
 Component Sizing Information, AirTerminal:SingleDuct:VAV:Reheat, PERIMETER_MID_ZN_3 ZN VAV TERM, Design Size Maximum Air Flow Rate [m3/s], 10.50242
 Component Sizing Information, AirTerminal:SingleDuct:VAV:Reheat, PERIMETER_MID_ZN_3 ZN VAV TERM, Design Size Constant Minimum Air Flow Fraction, 0.22740
 Component Sizing Information, AirTerminal:SingleDuct:VAV:Reheat, PERIMETER_MID_ZN_3 ZN VAV TERM, User-Specified Constant Minimum Air Flow Fraction, 0.20000
 Component Sizing Information, AirTerminal:SingleDuct:VAV:Reheat, PERIMETER_MID_ZN_3 ZN VAV TERM, Design Size Minimum Air Flow Rate [m3/s], 2.10048
 Component Sizing Information, AirTerminal:SingleDuct:VAV:Reheat, PERIMETER_MID_ZN_3 ZN VAV TERM, Design Size Maximum Flow per Zone Floor Area during Reheat [m3/s-m2], 3.35099E-003
 Component Sizing Information, AirTerminal:SingleDuct:VAV:Reheat, PERIMETER_MID_ZN_3 ZN VAV TERM, Design Size Maximum Flow Fraction during Reheat [], 1.00000
 Component Sizing Information, AirTerminal:SingleDuct:VAV:Reheat, PERIMETER_MID_ZN_3 ZN VAV TERM, Design Size Maximum Reheat Water Flow Rate [m3/s], 4.94596E-003
[...]
 Component Sizing Information, AirLoopHVAC:UnitarySystem, DATACENTER_TOP_ZN_6 ZN UNITARY HP, Design Size Supplemental Heating Coil Nominal Capacity [W], 8403.15952
 Component Sizing Information, AirLoopHVAC:UnitarySystem, DATACENTER_TOP_ZN_6 ZN UNITARY HP, User-Specified Supplemental Heating Coil Nominal Capacity [W], 8403.15952
 Component Sizing Information, AirLoopHVAC:UnitarySystem, DATACENTER_TOP_ZN_6 ZN UNITARY HP, Fraction of Supply Air Flow That Goes Through the Controlling Zone, 1.00000
 Component Sizing Information, Fan:OnOff, DATACENTER_TOP_ZN_6 ZN PSZ-AC DATA CENTER FAN, Design Size Maximum Flow Rate [m3/s], 0.46157
 Component Sizing Information, COIL:HEATING:WATERTOAIRHEATPUMP:EQUATIONFIT, DATACENTER_TOP_ZN_6 ZN PSZ-AC DATA CENTER WATER-TO-AIR HP HTG COIL, Design Size Rated Air Flow Rate [m3/s], 0.46157
 Component Sizing Information, COIL:HEATING:WATERTOAIRHEATPUMP:EQUATIONFIT, DATACENTER_TOP_ZN_6 ZN PSZ-AC DATA CENTER WATER-TO-AIR HP HTG COIL, Design Size Rated Heating Capacity [W], 8403.15952
 Component Sizing Information, COIL:HEATING:WATERTOAIRHEATPUMP:EQUATIONFIT, DATACENTER_TOP_ZN_6 ZN PSZ-AC DATA CENTER WATER-TO-AIR HP HTG COIL, Design Size Rated Water Flow Rate [m3/s], 1.84127E-004
 Component Sizing Information, Coil:Heating:Electric, DATACENTER_TOP_ZN_6 ZN PSZ-AC DATA CENTER ELECTRIC BACKUP HTG COIL, Design Size Nominal Capacity [W], 8403.15952
 Component Sizing Information, Controller:OutdoorAir, VAV_BOT WITH REHEAT OA CONTROLLER, Maximum Outdoor Air Flow Rate [m3/s], 11.55034
 Component Sizing Information, Coil:Cooling:Water, VAV_BOT WITH REHEAT CLG COIL, Design Size Design Coil Load [W], 272550.21439
 Component Sizing Information, Coil:Cooling:Water, VAV_BOT WITH REHEAT CLG COIL, Design Size Design Water Flow Rate [m3/s], 1.15718E-002
 Component Sizing Information, Coil:Cooling:Water, VAV_BOT WITH REHEAT CLG COIL, Design Size Design Air Flow Rate [m3/s], 11.55034
 Component Sizing Information, Coil:Cooling:Water, VAV_BOT WITH REHEAT CLG COIL, Design Size Design Inlet Air Temperature [C], 26.29425
 Component Sizing Information, Coil:Cooling:Water, VAV_BOT WITH REHEAT CLG COIL, Design Size Design Inlet Water Temperature [C], 6.66667
 Component Sizing Information, Coil:Cooling:Water, VAV_BOT WITH REHEAT CLG COIL, Design Size Design Outlet Air Temperature [C], 12.80000
 Component Sizing Information, Coil:Cooling:Water, VAV_BOT WITH REHEAT CLG COIL, Design Size Design Inlet Air Humidity Ratio, 1.00800E-002
 Component Sizing Information, Coil:Cooling:Water, VAV_BOT WITH REHEAT CLG COIL, Design Size Design Outlet Air Humidity Ratio, 8.32074E-003
Water Cooling Coil Capacity Information,Coil:Cooling:Water,VAV_BOT WITH REHEAT CLG COIL,306345.73,208222.63,98123.09,0.68,33106.01,335.78
 Component Sizing Information, Coil:Heating:Water, VAV_BOT WITH REHEAT MAIN HTG COIL, Design Size Rated Capacity [W], 77002.91945
 Component Sizing Information, Coil:Heating:Water, VAV_BOT WITH REHEAT MAIN HTG COIL, Design Size Maximum Water Flow Rate [m3/s], 1.65615E-003
 Component Sizing Information, Coil:Heating:Water, VAV_BOT WITH REHEAT MAIN HTG COIL, Design Size U-Factor Times Area Value [W/K], 1092.43404
Water Heating Coil Capacity Information,Coil:Heating:Water,VAV_BOT WITH REHEAT MAIN HTG COIL,57608.46
 Component Sizing Information, Fan:VariableVolume, VAV_BOT WITH REHEAT FAN, Design Size Maximum Flow Rate [m3/s], 11.55034
 Component Sizing Information, Controller:WaterCoil, VAV_BOT WITH REHEAT CLG COIL CONTROLLER, Maximum Actuated Flow [m3/s], 1.15718E-002
 Component Sizing Information, Controller:WaterCoil, VAV_BOT WITH REHEAT CLG COIL CONTROLLER, Controller Convergence Tolerance, 4.11511E-005
 Component Sizing Information, Controller:WaterCoil, VAV_BOT WITH REHEAT MAIN HTG COIL CONTROLLER, Maximum Actuated Flow [m3/s], 1.65615E-003
 Component Sizing Information, Controller:OutdoorAir, VAV_MID WITH REHEAT OA CONTROLLER, Maximum Outdoor Air Flow Rate [m3/s], 98.03452
 Component Sizing Information, Coil:Cooling:Water, VAV_MID WITH REHEAT CLG COIL, Design Size Design Coil Load [W], 1734114.76282
 Component Sizing Information, Coil:Cooling:Water, VAV_MID WITH REHEAT CLG COIL, Design Size Design Water Flow Rate [m3/s], 7.36259E-002
 Component Sizing Information, Coil:Cooling:Water, VAV_MID WITH REHEAT CLG COIL, Design Size Design Air Flow Rate [m3/s], 98.03452
 Component Sizing Information, Coil:Cooling:Water, VAV_MID WITH REHEAT CLG COIL, Design Size Design Inlet Air Temperature [C], 24.16673
 Component Sizing Information, Coil:Cooling:Water, VAV_MID WITH REHEAT CLG COIL, Design Size Design Inlet Water Temperature [C], 6.66667
 Component Sizing Information, Coil:Cooling:Water, VAV_MID WITH REHEAT CLG COIL, Design Size Design Outlet Air Temperature [C], 12.80000
 Component Sizing Information, Coil:Cooling:Water, VAV_MID WITH REHEAT CLG COIL, Design Size Design Inlet Air Humidity Ratio, 9.01441E-003
 Component Sizing Information, Coil:Cooling:Water, VAV_MID WITH REHEAT CLG COIL, Design Size Design Outlet Air Humidity Ratio, 8.32074E-003
Water Cooling Coil Capacity Information,Coil:Cooling:Water,VAV_MID WITH REHEAT CLG COIL,2305367.12,1632863.38,672503.74,0.71,253560.28,2571.75
 Component Sizing Information, Coil:Heating:Water, VAV_MID WITH REHEAT MAIN HTG COIL, Design Size Rated Capacity [W], 405348.79146
 Component Sizing Information, Coil:Heating:Water, VAV_MID WITH REHEAT MAIN HTG COIL, Design Size Maximum Water Flow Rate [m3/s], 8.71807E-003
 Component Sizing Information, Coil:Heating:Water, VAV_MID WITH REHEAT MAIN HTG COIL, Design Size U-Factor Times Area Value [W/K], 6107.19603
Water Heating Coil Capacity Information,Coil:Heating:Water,VAV_MID WITH REHEAT MAIN HTG COIL,329591.66
 Component Sizing Information, Fan:VariableVolume, VAV_MID WITH REHEAT FAN, Design Size Maximum Flow Rate [m3/s], 98.03452
 Component Sizing Information, Controller:WaterCoil, VAV_MID WITH REHEAT CLG COIL CONTROLLER, Maximum Actuated Flow [m3/s], 7.36259E-002
 Component Sizing Information, Controller:WaterCoil, VAV_MID WITH REHEAT CLG COIL CONTROLLER, Controller Convergence Tolerance, 6.46770E-006
 Component Sizing Information, Controller:WaterCoil, VAV_MID WITH REHEAT MAIN HTG COIL CONTROLLER, Maximum Actuated Flow [m3/s], 8.71807E-003
 Component Sizing Information, Controller:OutdoorAir, VAV_TOP WITH REHEAT OA CONTROLLER, Maximum Outdoor Air Flow Rate [m3/s], 11.05001
 Component Sizing Information, Coil:Cooling:Water, VAV_TOP WITH REHEAT CLG COIL, Design Size Design Coil Load [W], 263692.42044
 Component Sizing Information, Coil:Cooling:Water, VAV_TOP WITH REHEAT CLG COIL, Design Size Design Water Flow Rate [m3/s], 1.11957E-002
 Component Sizing Information, Coil:Cooling:Water, VAV_TOP WITH REHEAT CLG COIL, Design Size Design Air Flow Rate [m3/s], 11.05001
 Component Sizing Information, Coil:Cooling:Water, VAV_TOP WITH REHEAT CLG COIL, Design Size Design Inlet Air Temperature [C], 26.28929
 Component Sizing Information, Coil:Cooling:Water, VAV_TOP WITH REHEAT CLG COIL, Design Size Design Inlet Water Temperature [C], 6.66667
 Component Sizing Information, Coil:Cooling:Water, VAV_TOP WITH REHEAT CLG COIL, Design Size Design Outlet Air Temperature [C], 12.80000
 Component Sizing Information, Coil:Cooling:Water, VAV_TOP WITH REHEAT CLG COIL, Design Size Design Inlet Air Humidity Ratio, 1.01693E-002
 Component Sizing Information, Coil:Cooling:Water, VAV_TOP WITH REHEAT CLG COIL, Design Size Design Outlet Air Humidity Ratio, 8.32074E-003
Water Cooling Coil Capacity Information,Coil:Cooling:Water,VAV_TOP WITH REHEAT CLG COIL,294459.47,199849.42,94610.05,0.68,31841.87,322.96
 Component Sizing Information, Coil:Heating:Water, VAV_TOP WITH REHEAT MAIN HTG COIL, Design Size Rated Capacity [W], 64761.21821
 Component Sizing Information, Coil:Heating:Water, VAV_TOP WITH REHEAT MAIN HTG COIL, Design Size Maximum Water Flow Rate [m3/s], 1.39286E-003
 Component Sizing Information, Coil:Heating:Water, VAV_TOP WITH REHEAT MAIN HTG COIL, Design Size U-Factor Times Area Value [W/K], 935.10532
Water Heating Coil Capacity Information,Coil:Heating:Water,VAV_TOP WITH REHEAT MAIN HTG COIL,49702.93
 Component Sizing Information, Fan:VariableVolume, VAV_TOP WITH REHEAT FAN, Design Size Maximum Flow Rate [m3/s], 11.05001
 Component Sizing Information, Controller:WaterCoil, VAV_TOP WITH REHEAT CLG COIL CONTROLLER, Maximum Actuated Flow [m3/s], 1.11957E-002
 Component Sizing Information, Controller:WaterCoil, VAV_TOP WITH REHEAT CLG COIL CONTROLLER, Controller Convergence Tolerance, 4.25334E-005
 Component Sizing Information, Controller:WaterCoil, VAV_TOP WITH REHEAT MAIN HTG COIL CONTROLLER, Maximum Actuated Flow [m3/s], 1.39286E-003
Water Heater Information,WaterHeater:Mixed,300.0GAL NATURAL GAS WATER HEATER - 300KBTU/HR 0.806 THERM EFF,1.1356,87921.3,0.525,0.1726
 Component Sizing Information, Pump:VariableSpeed, CHILLED WATER LOOP SECONDARY PUMP, Design Flow Rate [m3/s], 0.10082
 Component Sizing Information, Pump:VariableSpeed, CHILLED WATER LOOP SECONDARY PUMP, Design Power Consumption [W], 18574.73291
 Component Sizing Information, PlantLoop, CHILLED WATER LOOP, Maximum Loop Flow Rate [m3/s], 0.10082
 Component Sizing Information, PlantLoop, CHILLED WATER LOOP, Plant Loop Volume [m3], 12.09835
 Component Sizing Information, Pump:ConstantSpeed, CHILLED WATER LOOP PRIMARY PUMP, Design Flow Rate [m3/s], 0.10082
 Component Sizing Information, Pump:ConstantSpeed, CHILLED WATER LOOP PRIMARY PUMP, Design Power Consumption [W], 6319.86550
 Component Sizing Information, Chiller:Electric:EIR, 90.1-2010 WATERCOOLED  CENTRIFUGAL CHILLER 0 736TONS 0.6KW/TON, Design Size Reference Chilled Water Flow Rate [m3/s], 0.10082
 Component Sizing Information, Chiller:Electric:EIR, 90.1-2010 WATERCOOLED  CENTRIFUGAL CHILLER 0 736TONS 0.6KW/TON, Design Size Reference Capacity [W], 2374568.14753
 Component Sizing Information, Chiller:Electric:EIR, 90.1-2010 WATERCOOLED  CENTRIFUGAL CHILLER 0 736TONS 0.6KW/TON, Design Size Reference Condenser Fluid Flow Rate [m3/s], 0.11884
! <Chiller Standard Rating Information>, Component Type, Component Name, IPLV in SI Units {W/W}, IPLV in IP Units {Btu/W-h}
 Chiller Standard Rating Information, Chiller:Electric:EIR, 90.1-2010 WATERCOOLED  CENTRIFUGAL CHILLER 0 736TONS 0.6KW/TON, 9.51, 32.44
 Component Sizing Information, PlantLoop, CONDENSER WATER LOOP, Maximum Loop Flow Rate [m3/s], 0.11884
 Component Sizing Information, PlantLoop, CONDENSER WATER LOOP, Plant Loop Volume [m3], 14.26063
 Component Sizing Information, Pump:ConstantSpeed, CONDENSER WATER LOOP PUMP, Design Flow Rate [m3/s], 0.11884
 Component Sizing Information, Pump:ConstantSpeed, CONDENSER WATER LOOP PUMP, Design Power Consumption [W], 24052.77738
 Component Sizing Information, CoolingTower:SingleSpeed, CENTRIFUGAL FAN CYCLING OPEN COOLING TOWER 38.2 GPM/HP, Design Water Flow Rate [m3/s], 0.11884
 Component Sizing Information, CoolingTower:SingleSpeed, CENTRIFUGAL FAN CYCLING OPEN COOLING TOWER 38.2 GPM/HP, Design Air Flow Rate [m3/s], 102.75738
 Component Sizing Information, CoolingTower:SingleSpeed, CENTRIFUGAL FAN CYCLING OPEN COOLING TOWER 38.2 GPM/HP, U-Factor Times Area Value at Design Air Flow Rate [W/C], 143512.84900
 Component Sizing Information, CoolingTower:SingleSpeed, CENTRIFUGAL FAN CYCLING OPEN COOLING TOWER 38.2 GPM/HP, Free Convection Regime Air Flow Rate [m3/s], 10.27574
 Component Sizing Information, CoolingTower:SingleSpeed, CENTRIFUGAL FAN CYCLING OPEN COOLING TOWER 38.2 GPM/HP, Free Convection U-Factor Times Area Value [W/K], 14351.28490
 Component Sizing Information, PlantLoop, HEAT PUMP LOOP, Maximum Loop Flow Rate [m3/s], 1.06835E-002
 Component Sizing Information, PlantLoop, HEAT PUMP LOOP, Plant Loop Volume [m3], 1.28202
 Component Sizing Information, Pump:ConstantSpeed, HEAT PUMP LOOP PUMP, Design Flow Rate [m3/s], 1.06835E-002
 Component Sizing Information, Pump:ConstantSpeed, HEAT PUMP LOOP PUMP, Design Power Consumption [W], 2744.62540
 Component Sizing Information, CoolingTower:TwoSpeed, HEAT PUMP LOOP CENTRAL TOWER 20.0 GPM/HP, Design Water Flow Rate [m3/s], 1.06835E-002
 Component Sizing Information, CoolingTower:TwoSpeed, HEAT PUMP LOOP CENTRAL TOWER 20.0 GPM/HP, Air Flow Rate at High Fan Speed [m3/s], 14.11841
 Component Sizing Information, CoolingTower:TwoSpeed, HEAT PUMP LOOP CENTRAL TOWER 20.0 GPM/HP, U-Factor Times Area Value at High Fan Speed [W/C], 6581.71149
 Component Sizing Information, CoolingTower:TwoSpeed, HEAT PUMP LOOP CENTRAL TOWER 20.0 GPM/HP, Low Fan Speed Air Flow Rate [m3/s], 7.05920
 Component Sizing Information, CoolingTower:TwoSpeed, HEAT PUMP LOOP CENTRAL TOWER 20.0 GPM/HP, U-Factor Times Area Value at Low Fan Speed [W/K], 3949.02690
 Component Sizing Information, Boiler:HotWater, HEAT PUMP LOOP SUP BOILER 1409KBTU/HR 0.8 THERMAL EFF, Design Size Nominal Capacity [W], 491177.53314
 Component Sizing Information, Boiler:HotWater, HEAT PUMP LOOP SUP BOILER 1409KBTU/HR 0.8 THERMAL EFF, Design Size Design Water Flow Rate [m3/s], 1.06835E-002
 Component Sizing Information, PlantLoop, HOT WATER LOOP, Maximum Loop Flow Rate [m3/s], 6.04343E-002
 Component Sizing Information, PlantLoop, HOT WATER LOOP, Plant Loop Volume [m3], 7.25211
 Component Sizing Information, Pump:VariableSpeed, HOT WATER LOOP PUMP, Design Flow Rate [m3/s], 6.04343E-002
 Component Sizing Information, Pump:VariableSpeed, HOT WATER LOOP PUMP, Design Power Consumption [W], 14941.44528
 Component Sizing Information, Boiler:HotWater, HOT WATER LOOP BOILER 8806KBTU/HR 0.8 THERMAL EFF, Design Size Nominal Capacity [W], 2820873.43710
 Component Sizing Information, Boiler:HotWater, HOT WATER LOOP BOILER 8806KBTU/HR 0.8 THERMAL EFF, Design Size Design Water Flow Rate [m3/s], 6.04343E-002
 Component Sizing Information, PlantLoop, MAIN SERVICE WATER LOOP, Maximum Loop Flow Rate [m3/s], 4.39108E-004
 Component Sizing Information, PlantLoop, MAIN SERVICE WATER LOOP, Plant Loop Volume [m3], 5.26929E-002
 Component Sizing Information, Pump:ConstantSpeed, SERVICE WATER LOOP PUMP, Design Flow Rate [m3/s], 4.39108E-004
 Component Sizing Information, Pump:ConstantSpeed, SERVICE WATER LOOP PUMP, Design Power Consumption [W], 19.68117
 Component Sizing Information, WaterHeater:Mixed, 300.0GAL NATURAL GAS WATER HEATER - 300KBTU/HR 0.806 THERM EFF, Use Side Design Flow Rate [m3/s], 4.39108E-004
 Component Sizing Information, PlantEquipmentOperation:ComponentSetPoint, HEAT PUMP LOOP SETPOINT OPERATION SCHEME, Design Water Flow Rate [m3/s] Equipment # 45, 4.39108E-004
 Component Sizing Information, PlantEquipmentOperation:ComponentSetPoint, HEAT PUMP LOOP SETPOINT OPERATION SCHEME, Design Water Flow Rate [m3/s] Equipment # 45, 4.39108E-004
! <Environment>,Environment Name,Environment Type, Start Date, End Date, Start DayOfWeek, Duration {#days}, Source:Start DayOfWeek,  Use Daylight Saving, Use Holidays, Apply Weekend Holiday Rule,  Use Rain Values, Use Snow Values
! <Environment:Special Days>, Special Day Name, Special Day Type, Source, Start Date, Duration {#days}
! <Environment:Daylight Saving>, Daylight Saving Indicator, Source, Start Date, End Date
! <Environment:WarmupDays>, NumberofWarmupDays
Environment,RUN PERIOD 1,WeatherFileRunPeriod,01/01,01/31,Sunday,31,Use RunPeriod Specified Day,No,No,No,Yes,Yes
Environment:Daylight Saving,No,RunPeriod Object
Environment:WarmupDays,  9
! <Tabular Report>,Style,Unit Conversion
Tabular Report,HTML,None
! <Warmup Convergence Information>,Zone Name,Environment Type/Name,Average Warmup Temperature Difference {deltaC},Std Dev Warmup Temperature Difference {deltaC},Max Temperature Pass/Fail Convergence,Min Temperature Pass/Fail Convergence,Average Warmup Load Difference {W},Std Dev Warmup Load Difference {W},Heating Load Pass/Fail Convergence,Cooling Load Pass/Fail Convergence
 Warmup Convergence Information,BASEMENT ZN,RunPeriod: RUN PERIOD 1,9.5569803446E-004,1.2350475456E-003,Pass,Pass,0.0000000000,0.0000000000,Pass,Pass
 Warmup Convergence Information,CORE_BOTTOM ZN,RunPeriod: RUN PERIOD 1,2.8253622057E-003,1.1432565366E-002,Pass,Pass,2.7455295955E-003,1.9341933763E-002,Pass,Pass
 Warmup Convergence Information,CORE_MID ZN,RunPeriod: RUN PERIOD 1,6.7219009926E-003,2.2016063625E-002,Pass,Pass,6.9476308310E-002,0.1562889953,Pass,Pass
 Warmup Convergence Information,CORE_TOP ZN,RunPeriod: RUN PERIOD 1,2.3473591042E-002,8.8368787619E-002,Pass,Pass,0.1316169794,0.4290791240,Pass,Pass
 Warmup Convergence Information,DATACENTER_BASEMENT_ZN_6 ZN,RunPeriod: RUN PERIOD 1,1.1532184515E-003,2.3945317658E-003,Pass,Pass,4.8253038188E-005,6.2453908625E-005,Pass,Pass
 Warmup Convergence Information,DATACENTER_BOT_ZN_6 ZN,RunPeriod: RUN PERIOD 1,6.0087737255E-014,4.5788270350E-014,Pass,Pass,1.2798920657E-003,2.1627871849E-003,Pass,Pass
 Warmup Convergence Information,DATACENTER_MID_ZN_6 ZN,RunPeriod: RUN PERIOD 1,5.0712520603E-014,4.1148714903E-014,Pass,Pass,1.5572546173E-003,2.2020258285E-003,Pass,Pass
 Warmup Convergence Information,DATACENTER_TOP_ZN_6 ZN,RunPeriod: RUN PERIOD 1,4.8936163763E-014,3.7307211727E-014,Pass,Pass,2.0072604001E-003,2.3989232906E-003,Pass,Pass
 Warmup Convergence Information,GROUNDFLOOR_PLENUM ZN,RunPeriod: RUN PERIOD 1,5.8376747107E-003,9.3343198829E-003,Pass,Pass,0.2963133800,1.5457422637,Pass,Pass
 Warmup Convergence Information,MIDFLOOR_PLENUM ZN,RunPeriod: RUN PERIOD 1,1.1220943896E-002,4.0596269006E-002,Pass,Pass,1.7834498971E-002,7.4537562186E-002,Pass,Pass
 Warmup Convergence Information,PERIMETER_BOT_ZN_1 ZN,RunPeriod: RUN PERIOD 1,2.3719128506E-002,7.5955695112E-002,Pass,Pass,0.6581937351,7.5164200094,Pass,Pass
 Warmup Convergence Information,PERIMETER_BOT_ZN_2 ZN,RunPeriod: RUN PERIOD 1,2.6397559535E-002,0.1086482283,Pass,Pass,2.7748759567E-002,8.9640324030E-002,Pass,Pass
 Warmup Convergence Information,PERIMETER_BOT_ZN_3 ZN,RunPeriod: RUN PERIOD 1,2.1341824775E-002,9.3231436591E-002,Pass,Pass,2.0008723537E-002,7.4936007820E-002,Pass,Pass
 Warmup Convergence Information,PERIMETER_BOT_ZN_4 ZN,RunPeriod: RUN PERIOD 1,1.9611238602E-002,6.9101907041E-002,Pass,Pass,7.1968360039E-003,3.2455004297E-002,Pass,Pass
 Warmup Convergence Information,PERIMETER_MID_ZN_1 ZN,RunPeriod: RUN PERIOD 1,2.7769376591E-002,0.1666489294,Pass,Pass,0.1714940545,1.4032557952,Pass,Pass
 Warmup Convergence Information,PERIMETER_MID_ZN_2 ZN,RunPeriod: RUN PERIOD 1,2.7358074636E-002,0.1534244502,Pass,Pass,2.0686103068E-002,5.2392777375E-002,Pass,Pass
 Warmup Convergence Information,PERIMETER_MID_ZN_3 ZN,RunPeriod: RUN PERIOD 1,2.7719785606E-002,0.1380237955,Pass,Pass,1.0930778834E-002,4.3180733442E-002,Pass,Pass
 Warmup Convergence Information,PERIMETER_MID_ZN_4 ZN,RunPeriod: RUN PERIOD 1,2.4556937149E-002,0.1378690159,Pass,Pass,6.7240057737E-002,0.3812187729,Pass,Pass
 Warmup Convergence Information,PERIMETER_TOP_ZN_1 ZN,RunPeriod: RUN PERIOD 1,2.7764957606E-002,0.1739454229,Pass,Pass,6.4040988487E-002,0.1743881749,Pass,Pass
 Warmup Convergence Information,PERIMETER_TOP_ZN_2 ZN,RunPeriod: RUN PERIOD 1,2.7951986252E-002,0.1695506287,Pass,Pass,1.7519242953E-002,4.6768021271E-002,Pass,Pass
 Warmup Convergence Information,PERIMETER_TOP_ZN_3 ZN,RunPeriod: RUN PERIOD 1,2.7784918498E-002,0.1505496039,Pass,Pass,1.1459367579E-002,4.2605950197E-002,Pass,Pass
 Warmup Convergence Information,PERIMETER_TOP_ZN_4 ZN,RunPeriod: RUN PERIOD 1,2.8081377565E-002,0.1683769556,Pass,Pass,6.2409101875E-002,0.2711607131,Pass,Pass
 Warmup Convergence Information,TOPFLOOR_PLENUM ZN,RunPeriod: RUN PERIOD 1,2.6587407130E-002,7.0522442678E-002,Pass,Pass,1.6280833787E-002,7.2678018681E-002,Pass,Pass
! <Program Control Information:Threads/Parallel Sims>, Threading Supported,Maximum Number of Threads, Env Set Threads (OMP_NUM_THREADS), EP Env Set Threads (EP_OMP_NUM_THREADS), IDF Set Threads, Number of Threads Used (Interior Radiant Exchange), Number Nominal Surfaces, Number Parallel Sims
Program Control:Threads/Parallel Sims, No,1, N/A, N/A, N/A, N/A, N/A, N/A
End of Data
